dimer.openff.pdb
  PyMOL2.5          3D                             0

299314  0  0  0  0  0  0  0  0999 V2000
    4.4230   -4.8050    0.2770 C   0  0  0  0  0  0  0  0  0  0  0  0
    4.2230   -3.3820   -0.0250 O   0  0  0  0  0  0  0  0  0  0  0  0
    6.4650   -3.9610    5.6580 S   0  0  0  0  0  0  0  0  0  0  0  0
    3.8890   -5.6340   -0.8870 C   0  0  0  0  0  0  0  0  0  0  0  0
    4.5350   -5.2310   -2.1060 O   0  0  0  0  0  0  0  0  0  0  0  0
    2.4040   -5.4000   -1.0760 C   0  0  0  0  0  0  0  0  0  0  0  0
    1.9740   -6.3020   -2.1090 O   0  0  0  0  0  0  0  0  0  0  0  0
    1.6560   -5.7120    0.2100 C   0  0  0  0  0  0  0  0  0  0  0  0
    3.6790   -5.1660    1.5000 O   0  0  0  0  0  0  0  0  0  0  0  0
    2.2190   -4.9060    1.3920 C   0  0  0  0  0  0  0  0  0  0  0  0
    1.0780   -6.4870    2.8670 O   0  0  0  0  0  0  0  0  0  0  0  0
    1.5670   -5.1430    2.7620 C   0  0  0  0  0  0  0  0  0  0  0  0
    5.1910    0.9030   -0.0260 O   0  0  0  0  0  0  0  0  0  0  0  0
    6.4280    0.1720    0.2770 C   0  0  0  0  0  0  0  0  0  0  0  0
    6.8300   -0.0070   -2.1070 O   0  0  0  0  0  0  0  0  0  0  0  0
    6.7430   -0.7630   -0.8880 C   0  0  0  0  0  0  0  0  0  0  0  0
    6.0710   -2.6760   -2.1080 O   0  0  0  0  0  0  0  0  0  0  0  0
    5.6340   -1.7780   -1.0750 C   0  0  0  0  0  0  0  0  0  0  0  0
    6.2470   -0.6340    1.5000 O   0  0  0  0  0  0  0  0  0  0  0  0
    5.4110   -2.5570    0.2100 C   0  0  0  0  0  0  0  0  0  0  0  0
    5.6590   -3.4910    2.8680 O   0  0  0  0  0  0  0  0  0  0  0  0
    5.1340   -1.6150    1.3920 C   0  0  0  0  0  0  0  0  0  0  0  0
    2.4440    4.3300   -0.0260 O   0  0  0  0  0  0  0  0  0  0  0  0
    4.9130   -2.2710    2.7620 C   0  0  0  0  0  0  0  0  0  0  0  0
    4.1770    5.0460   -2.1070 O   0  0  0  0  0  0  0  0  0  0  0  0
    6.3410   -4.1130    4.0510 C   0  0  0  0  0  0  0  0  0  0  0  0
    5.7910    2.7880   -2.1100 O   0  0  0  0  0  0  0  0  0  0  0  0
    3.7880    4.8430    0.2760 C   0  0  0  0  0  0  0  0  0  0  0  0
    4.3050    4.1990    1.4990 O   0  0  0  0  0  0  0  0  0  0  0  0
    4.7140    4.5060   -0.8890 C   0  0  0  0  0  0  0  0  0  0  0  0
    6.1730    1.9580    2.8670 O   0  0  0  0  0  0  0  0  0  0  0  0
    4.8160    3.0060   -1.0770 C   0  0  0  0  0  0  0  0  0  0  0  0
   -1.9470    4.3200   -0.0250 O   0  0  0  0  0  0  0  0  0  0  0  0
    5.2880    2.3470    0.2100 C   0  0  0  0  0  0  0  0  0  0  0  0
   -1.4270    6.1220   -2.1070 O   0  0  0  0  0  0  0  0  0  0  0  0
    4.3780    2.7170    1.3910 C   0  0  0  0  0  0  0  0  0  0  0  0
    1.3450    5.9750   -2.1090 O   0  0  0  0  0  0  0  0  0  0  0  0
    4.7540    2.1350    2.7610 C   0  0  0  0  0  0  0  0  0  0  0  0
   -0.6840    5.6930    1.5000 O   0  0  0  0  0  0  0  0  0  0  0  0
   -1.5110    5.6900    0.2780 C   0  0  0  0  0  0  0  0  0  0  0  0
    2.2320    5.7540    2.8670 O   0  0  0  0  0  0  0  0  0  0  0  0
   -0.6700    6.2050   -0.8870 C   0  0  0  0  0  0  0  0  0  0  0  0
   -4.6790    0.8820   -0.0250 O   0  0  0  0  0  0  0  0  0  0  0  0
    0.5660    5.3500   -1.0760 C   0  0  0  0  0  0  0  0  0  0  0  0
   -5.7630    2.4120   -2.1050 O   0  0  0  0  0  0  0  0  0  0  0  0
    1.3760    5.3060    0.2090 C   0  0  0  0  0  0  0  0  0  0  0  0
   -3.9200    4.4870   -2.1080 O   0  0  0  0  0  0  0  0  0  0  0  0
    0.5200    4.8260    1.3910 C   0  0  0  0  0  0  0  0  0  0  0  0
   -4.9640    2.7240    1.5010 O   0  0  0  0  0  0  0  0  0  0  0  0
    1.2090    4.7570    2.7610 C   0  0  0  0  0  0  0  0  0  0  0  0
   -3.1930    5.0430    2.8680 O   0  0  0  0  0  0  0  0  0  0  0  0
   -5.4770    2.0760    0.2780 C   0  0  0  0  0  0  0  0  0  0  0  0
   -3.6920   -3.3990   -0.0260 O   0  0  0  0  0  0  0  0  0  0  0  0
   -5.3550    3.0550   -0.8870 C   0  0  0  0  0  0  0  0  0  0  0  0
   -5.5640   -3.2910   -2.1070 O   0  0  0  0  0  0  0  0  0  0  0  0
   -3.9160    3.4890   -1.0750 C   0  0  0  0  0  0  0  0  0  0  0  0
   -6.0380   -0.5570   -2.1090 O   0  0  0  0  0  0  0  0  0  0  0  0
   -3.3770    4.0940    0.2110 C   0  0  0  0  0  0  0  0  0  0  0  0
   -5.3110   -2.4730    1.5000 O   0  0  0  0  0  0  0  0  0  0  0  0
   -3.5350    3.1240    1.3920 C   0  0  0  0  0  0  0  0  0  0  0  0
   -6.0210    0.3560    2.8670 O   0  0  0  0  0  0  0  0  0  0  0  0
   -3.0510    3.6200    2.7620 C   0  0  0  0  0  0  0  0  0  0  0  0
    0.2690   -5.2960   -0.0260 O   0  0  0  0  0  0  0  0  0  0  0  0
   -5.1240   -3.2780    0.2770 C   0  0  0  0  0  0  0  0  0  0  0  0
   -0.9820   -6.6920   -2.1070 O   0  0  0  0  0  0  0  0  0  0  0  0
   -5.8140   -2.5720   -0.8880 C   0  0  0  0  0  0  0  0  0  0  0  0
   -3.4150   -5.3580   -2.1100 O   0  0  0  0  0  0  0  0  0  0  0  0
   -5.2550   -1.1770   -1.0760 C   0  0  0  0  0  0  0  0  0  0  0  0
   -1.4650   -5.9840    1.4990 O   0  0  0  0  0  0  0  0  0  0  0  0
   -5.3930   -0.3780    0.2110 C   0  0  0  0  0  0  0  0  0  0  0  0
   -4.1200   -4.7750    2.8670 O   0  0  0  0  0  0  0  0  0  0  0  0
   -4.7330   -1.1070    1.3910 C   0  0  0  0  0  0  0  0  0  0  0  0
    3.9650    3.1470   10.4710 O   0  0  0  0  0  0  0  0  0  0  0  0
   -4.8200   -0.4200    2.7610 C   0  0  0  0  0  0  0  0  0  0  0  0
    4.2770    4.9960   12.5520 O   0  0  0  0  0  0  0  0  0  0  0  0
   -0.7180   -6.3400    0.2770 C   0  0  0  0  0  0  0  0  0  0  0  0
    1.7160    6.0670   12.5550 O   0  0  0  0  0  0  0  0  0  0  0  0
   -1.6990   -6.4390   -0.8890 C   0  0  0  0  0  0  0  0  0  0  0  0
    3.4210    4.9310    8.9460 O   0  0  0  0  0  0  0  0  0  0  0  0
   -2.4420   -5.1330   -1.0760 C   0  0  0  0  0  0  0  0  0  0  0  0
    0.8200    6.2520    7.5790 O   0  0  0  0  0  0  0  0  0  0  0  0
   -3.1530   -4.7410    0.2100 C   0  0  0  0  0  0  0  0  0  0  0  0
    4.9330   -1.1380   10.4720 O   0  0  0  0  0  0  0  0  0  0  0  0
   -2.1720   -4.6810    1.3920 C   0  0  0  0  0  0  0  0  0  0  0  0
    6.5720   -0.2280   12.5530 O   0  0  0  0  0  0  0  0  0  0  0  0
   -2.7640   -4.3190    2.7620 C   0  0  0  0  0  0  0  0  0  0  0  0
    5.8130    2.4410   12.5540 O   0  0  0  0  0  0  0  0  0  0  0  0
    4.1650    4.5700   10.1690 C   0  0  0  0  0  0  0  0  0  0  0  0
    5.9890    0.3990    8.9460 O   0  0  0  0  0  0  0  0  0  0  0  0
    3.6310    5.3990   11.3330 C   0  0  0  0  0  0  0  0  0  0  0  0
    5.4010    3.2560    7.5780 O   0  0  0  0  0  0  0  0  0  0  0  0
    2.1460    5.1650   11.5220 C   0  0  0  0  0  0  0  0  0  0  0  0
    2.1860   -4.5650   10.4720 O   0  0  0  0  0  0  0  0  0  0  0  0
    1.3980    5.4770   10.2360 C   0  0  0  0  0  0  0  0  0  0  0  0
    3.9190   -5.2810   12.5530 O   0  0  0  0  0  0  0  0  0  0  0  0
    1.9610    4.6710    9.0540 C   0  0  0  0  0  0  0  0  0  0  0  0
    5.5330   -3.0230   12.5560 O   0  0  0  0  0  0  0  0  0  0  0  0
    1.3090    4.9080    7.6840 C   0  0  0  0  0  0  0  0  0  0  0  0
    4.0470   -4.4340    8.9470 O   0  0  0  0  0  0  0  0  0  0  0  0
    6.1700   -0.4070   10.1690 C   0  0  0  0  0  0  0  0  0  0  0  0
    5.9150   -2.1930    7.5790 O   0  0  0  0  0  0  0  0  0  0  0  0
    6.4850    0.5280   11.3340 C   0  0  0  0  0  0  0  0  0  0  0  0
   -2.2050   -4.5550   10.4710 O   0  0  0  0  0  0  0  0  0  0  0  0
    5.3760    1.5430   11.5210 C   0  0  0  0  0  0  0  0  0  0  0  0
   -1.6850   -6.3570   12.5530 O   0  0  0  0  0  0  0  0  0  0  0  0
    5.1530    2.3220   10.2360 C   0  0  0  0  0  0  0  0  0  0  0  0
    1.0870   -6.2100   12.5550 O   0  0  0  0  0  0  0  0  0  0  0  0
    4.8760    1.3800    9.0540 C   0  0  0  0  0  0  0  0  0  0  0  0
   -0.9420   -5.9280    8.9460 O   0  0  0  0  0  0  0  0  0  0  0  0
    4.6550    2.0360    7.6840 C   0  0  0  0  0  0  0  0  0  0  0  0
    1.9740   -5.9890    7.5790 O   0  0  0  0  0  0  0  0  0  0  0  0
    3.5300   -5.0780   10.1700 C   0  0  0  0  0  0  0  0  0  0  0  0
   -4.9370   -1.1170   10.4710 O   0  0  0  0  0  0  0  0  0  0  0  0
    4.4560   -4.7410   11.3350 C   0  0  0  0  0  0  0  0  0  0  0  0
   -6.0210   -2.6470   12.5510 O   0  0  0  0  0  0  0  0  0  0  0  0
    4.5580   -3.2410   11.5230 C   0  0  0  0  0  0  0  0  0  0  0  0
   -4.1780   -4.7220   12.5540 O   0  0  0  0  0  0  0  0  0  0  0  0
    5.0300   -2.5820   10.2360 C   0  0  0  0  0  0  0  0  0  0  0  0
   -5.2220   -2.9590    8.9450 O   0  0  0  0  0  0  0  0  0  0  0  0
    4.1200   -2.9520    9.0550 C   0  0  0  0  0  0  0  0  0  0  0  0
   -3.4510   -5.2780    7.5780 O   0  0  0  0  0  0  0  0  0  0  0  0
    4.4960   -2.3700    7.6850 C   0  0  0  0  0  0  0  0  0  0  0  0
   -3.9500    3.1640   10.4720 O   0  0  0  0  0  0  0  0  0  0  0  0
    6.3300   -2.2550    6.2290 C   0  0  0  0  0  0  0  0  0  0  0  0
   -5.8220    3.0560   12.5530 O   0  0  0  0  0  0  0  0  0  0  0  0
   -1.7690   -5.9250   10.1680 C   0  0  0  0  0  0  0  0  0  0  0  0
   -6.2960    0.3220   12.5550 O   0  0  0  0  0  0  0  0  0  0  0  0
   -0.9280   -6.4400   11.3330 C   0  0  0  0  0  0  0  0  0  0  0  0
   -5.5690    2.2380    8.9460 O   0  0  0  0  0  0  0  0  0  0  0  0
    0.3080   -5.5850   11.5220 C   0  0  0  0  0  0  0  0  0  0  0  0
   -6.2790   -0.5910    7.5790 O   0  0  0  0  0  0  0  0  0  0  0  0
    1.1180   -5.5410   10.2370 C   0  0  0  0  0  0  0  0  0  0  0  0
    0.0110    5.0610   10.4720 O   0  0  0  0  0  0  0  0  0  0  0  0
    0.2620   -5.0610    9.0550 C   0  0  0  0  0  0  0  0  0  0  0  0
   -1.2400    6.4570   12.5530 O   0  0  0  0  0  0  0  0  0  0  0  0
    0.9510   -4.9920    7.6850 C   0  0  0  0  0  0  0  0  0  0  0  0
   -3.6730    5.1230   12.5560 O   0  0  0  0  0  0  0  0  0  0  0  0
   -5.7350   -2.3110   10.1680 C   0  0  0  0  0  0  0  0  0  0  0  0
   -1.7230    5.7490    8.9470 O   0  0  0  0  0  0  0  0  0  0  0  0
   -5.6130   -3.2900   11.3330 C   0  0  0  0  0  0  0  0  0  0  0  0
   -4.3780    4.5400    7.5790 O   0  0  0  0  0  0  0  0  0  0  0  0
   -4.1740   -3.7240   11.5210 C   0  0  0  0  0  0  0  0  0  0  0  0
   -3.6350   -4.3290   10.2350 C   0  0  0  0  0  0  0  0  0  0  0  0
   -3.7930   -3.3590    9.0540 C   0  0  0  0  0  0  0  0  0  0  0  0
   -3.3090   -3.8550    7.6840 C   0  0  0  0  0  0  0  0  0  0  0  0
   -5.3820    3.0430   10.1690 C   0  0  0  0  0  0  0  0  0  0  0  0
   -6.0720    2.3370   11.3340 C   0  0  0  0  0  0  0  0  0  0  0  0
   -5.5130    0.9420   11.5220 C   0  0  0  0  0  0  0  0  0  0  0  0
   -5.6510    0.1430   10.2350 C   0  0  0  0  0  0  0  0  0  0  0  0
   -4.9910    0.8720    9.0550 C   0  0  0  0  0  0  0  0  0  0  0  0
   -5.0780    0.1850    7.6850 C   0  0  0  0  0  0  0  0  0  0  0  0
   -0.9760    6.1050   10.1690 C   0  0  0  0  0  0  0  0  0  0  0  0
   -1.9570    6.2040   11.3350 C   0  0  0  0  0  0  0  0  0  0  0  0
   -2.7000    4.8980   11.5220 C   0  0  0  0  0  0  0  0  0  0  0  0
   -3.4110    4.5060   10.2360 C   0  0  0  0  0  0  0  0  0  0  0  0
   -2.4300    4.4460    9.0540 C   0  0  0  0  0  0  0  0  0  0  0  0
   -3.0220    4.0840    7.6840 C   0  0  0  0  0  0  0  0  0  0  0  0
    4.0090   -1.3900    7.5730 H   0  0  0  0  0  0  0  0  0  0  0  0
    7.3110   -1.7670    6.1340 H   0  0  0  0  0  0  0  0  0  0  0  0
    5.5770   -1.7430    5.6120 H   0  0  0  0  0  0  0  0  0  0  0  0
   -2.6500   -6.5660   10.0150 H   0  0  0  0  0  0  0  0  0  0  0  0
   -0.6450   -7.4780   11.1060 H   0  0  0  0  0  0  0  0  0  0  0  0
   -1.0720   -6.4240   13.3270 H   0  0  0  0  0  0  0  0  0  0  0  0
    0.0330   -4.5540   11.7890 H   0  0  0  0  0  0  0  0  0  0  0  0
    0.7430   -5.9340   13.4410 H   0  0  0  0  0  0  0  0  0  0  0  0
    1.4990   -6.5420    9.9880 H   0  0  0  0  0  0  0  0  0  0  0  0
    0.0200   -4.0150    9.2960 H   0  0  0  0  0  0  0  0  0  0  0  0
    0.2030   -5.1580    6.8960 H   0  0  0  0  0  0  0  0  0  0  0  0
    1.4130   -4.0000    7.5720 H   0  0  0  0  0  0  0  0  0  0  0  0
    2.2590   -6.2670    8.4850 H   0  0  0  0  0  0  0  0  0  0  0  0
   -6.7850   -2.0220   10.0150 H   0  0  0  0  0  0  0  0  0  0  0  0
   -6.2480   -4.1590   11.1070 H   0  0  0  0  0  0  0  0  0  0  0  0
   -5.6910   -3.1680   13.3260 H   0  0  0  0  0  0  0  0  0  0  0  0
   -3.5380   -2.8670   11.7880 H   0  0  0  0  0  0  0  0  0  0  0  0
   -4.1760   -4.2800   13.4400 H   0  0  0  0  0  0  0  0  0  0  0  0
   -4.1800   -5.2510    9.9840 H   0  0  0  0  0  0  0  0  0  0  0  0
   -3.1270   -2.5170    9.2960 H   0  0  0  0  0  0  0  0  0  0  0  0
   -5.0730    0.9520    6.8960 H   0  0  0  0  0  0  0  0  0  0  0  0
   -4.2140   -0.4860    7.5720 H   0  0  0  0  0  0  0  0  0  0  0  0
   -6.6130   -0.8070    8.4850 H   0  0  0  0  0  0  0  0  0  0  0  0
   -0.4610    7.0650   10.0160 H   0  0  0  0  0  0  0  0  0  0  0  0
   -2.6620    7.0180   11.1100 H   0  0  0  0  0  0  0  0  0  0  0  0
   -1.8220    6.2520   13.3270 H   0  0  0  0  0  0  0  0  0  0  0  0
   -2.0050    4.0880   11.7880 H   0  0  0  0  0  0  0  0  0  0  0  0
   -3.2420    5.0230   13.4420 H   0  0  0  0  0  0  0  0  0  0  0  0
   -4.1890    5.2420    9.9850 H   0  0  0  0  0  0  0  0  0  0  0  0
   -1.7560    3.6100    9.2940 H   0  0  0  0  0  0  0  0  0  0  0  0
   -2.4200    4.5570    6.8940 H   0  0  0  0  0  0  0  0  0  0  0  0
   -3.0080    2.9900    7.5720 H   0  0  0  0  0  0  0  0  0  0  0  0
   -4.7550    4.6670    8.4860 H   0  0  0  0  0  0  0  0  0  0  0  0
   -3.9050   -3.3730    6.8950 H   0  0  0  0  0  0  0  0  0  0  0  0
   -2.2450   -3.5980    7.5720 H   0  0  0  0  0  0  0  0  0  0  0  0
   -3.4910   -5.6740    8.4840 H   0  0  0  0  0  0  0  0  0  0  0  0
   -5.8110    4.0440   10.0170 H   0  0  0  0  0  0  0  0  0  0  0  0
   -7.1480    2.2920   11.1080 H   0  0  0  0  0  0  0  0  0  0  0  0
   -6.0250    2.4730   13.3270 H   0  0  0  0  0  0  0  0  0  0  0  0
   -4.4470    0.9800   11.7890 H   0  0  0  0  0  0  0  0  0  0  0  0
   -5.9500    0.5960   13.4410 H   0  0  0  0  0  0  0  0  0  0  0  0
   -6.7120   -0.0060    9.9840 H   0  0  0  0  0  0  0  0  0  0  0  0
   -3.9180    0.8760    9.2970 H   0  0  0  0  0  0  0  0  0  0  0  0
    5.4950   -5.0010    0.4290 H   0  0  0  0  0  0  0  0  0  0  0  0
    4.0840   -6.6920   -0.6600 H   0  0  0  0  0  0  0  0  0  0  0  0
    5.3550   -4.7190   -1.8910 H   0  0  0  0  0  0  0  0  0  0  0  0
    2.2040   -4.3520   -1.3430 H   0  0  0  0  0  0  0  0  0  0  0  0
    1.5870   -7.1150   -1.6970 H   0  0  0  0  0  0  0  0  0  0  0  0
    1.7480   -6.7790    0.4610 H   0  0  0  0  0  0  0  0  0  0  0  0
    1.9840   -3.8590    1.1510 H   0  0  0  0  0  0  0  0  0  0  0  0
    2.3130   -4.9680    3.5520 H   0  0  0  0  0  0  0  0  0  0  0  0
    0.7200   -4.4500    2.8740 H   0  0  0  0  0  0  0  0  0  0  0  0
    0.9890   -6.7320    3.8220 H   0  0  0  0  0  0  0  0  0  0  0  0
    7.2500    0.8870    0.4290 H   0  0  0  0  0  0  0  0  0  0  0  0
    7.6930   -1.2700   -0.6620 H   0  0  0  0  0  0  0  0  0  0  0  0
    6.9400    0.9530   -1.8930 H   0  0  0  0  0  0  0  0  0  0  0  0
    4.6890   -1.2810   -1.3410 H   0  0  0  0  0  0  0  0  0  0  0  0
    6.4650   -3.4860   -1.6960 H   0  0  0  0  0  0  0  0  0  0  0  0
    6.3020   -3.1510    0.4600 H   0  0  0  0  0  0  0  0  0  0  0  0
    4.1690   -1.1460    1.1510 H   0  0  0  0  0  0  0  0  0  0  0  0
    5.2410   -1.5780    3.5510 H   0  0  0  0  0  0  0  0  0  0  0  0
    3.8430   -2.5010    2.8750 H   0  0  0  0  0  0  0  0  0  0  0  0
    7.3960   -4.0390    3.7500 H   0  0  0  0  0  0  0  0  0  0  0  0
    5.5620   -4.8840    4.1440 H   0  0  0  0  0  0  0  0  0  0  0  0
    3.7420    5.9320    0.4280 H   0  0  0  0  0  0  0  0  0  0  0  0
    5.7030    4.9320   -0.6630 H   0  0  0  0  0  0  0  0  0  0  0  0
    3.4960    5.7310   -1.8920 H   0  0  0  0  0  0  0  0  0  0  0  0
    3.8390    2.5770   -1.3440 H   0  0  0  0  0  0  0  0  0  0  0  0
    6.6700    2.5920   -1.6980 H   0  0  0  0  0  0  0  0  0  0  0  0
    6.3080    2.6740    0.4610 H   0  0  0  0  0  0  0  0  0  0  0  0
    3.4090    2.2550    1.1500 H   0  0  0  0  0  0  0  0  0  0  0  0
    4.4160    2.8230    3.5500 H   0  0  0  0  0  0  0  0  0  0  0  0
    4.2670    1.1550    2.8730 H   0  0  0  0  0  0  0  0  0  0  0  0
    6.4310    1.9260    3.8220 H   0  0  0  0  0  0  0  0  0  0  0  0
   -2.3920    6.3310    0.4310 H   0  0  0  0  0  0  0  0  0  0  0  0
   -0.3870    7.2430   -0.6600 H   0  0  0  0  0  0  0  0  0  0  0  0
   -2.3880    6.0170   -1.8930 H   0  0  0  0  0  0  0  0  0  0  0  0
    0.2910    4.3190   -1.3430 H   0  0  0  0  0  0  0  0  0  0  0  0
    2.0470    6.5380   -1.6970 H   0  0  0  0  0  0  0  0  0  0  0  0
    1.7570    6.3070    0.4580 H   0  0  0  0  0  0  0  0  0  0  0  0
    0.2780    3.7800    1.1500 H   0  0  0  0  0  0  0  0  0  0  0  0
    0.4610    4.9230    3.5500 H   0  0  0  0  0  0  0  0  0  0  0  0
    1.6710    3.7650    2.8740 H   0  0  0  0  0  0  0  0  0  0  0  0
    2.4180    5.9350    3.8220 H   0  0  0  0  0  0  0  0  0  0  0  0
   -6.5270    1.7870    0.4310 H   0  0  0  0  0  0  0  0  0  0  0  0
   -5.9900    3.9240   -0.6610 H   0  0  0  0  0  0  0  0  0  0  0  0
   -6.2810    1.5960   -1.8900 H   0  0  0  0  0  0  0  0  0  0  0  0
   -3.2800    2.6320   -1.3420 H   0  0  0  0  0  0  0  0  0  0  0  0
   -3.9240    5.3880   -1.6970 H   0  0  0  0  0  0  0  0  0  0  0  0
   -3.9220    5.0160    0.4620 H   0  0  0  0  0  0  0  0  0  0  0  0
   -2.8690    2.2820    1.1500 H   0  0  0  0  0  0  0  0  0  0  0  0
   -3.6470    3.1380    3.5510 H   0  0  0  0  0  0  0  0  0  0  0  0
   -1.9870    3.3630    2.8740 H   0  0  0  0  0  0  0  0  0  0  0  0
   -3.2190    5.3020    3.8230 H   0  0  0  0  0  0  0  0  0  0  0  0
   -5.5530   -4.2790    0.4290 H   0  0  0  0  0  0  0  0  0  0  0  0
   -6.8900   -2.5270   -0.6620 H   0  0  0  0  0  0  0  0  0  0  0  0
   -5.2470   -4.2040   -1.8930 H   0  0  0  0  0  0  0  0  0  0  0  0
   -4.1890   -1.2150   -1.3430 H   0  0  0  0  0  0  0  0  0  0  0  0
   -6.7440    0.0020   -1.6970 H   0  0  0  0  0  0  0  0  0  0  0  0
   -6.4540   -0.2290    0.4620 H   0  0  0  0  0  0  0  0  0  0  0  0
   -3.6600   -1.1110    1.1490 H   0  0  0  0  0  0  0  0  0  0  0  0
   -4.8150   -1.1870    3.5500 H   0  0  0  0  0  0  0  0  0  0  0  0
   -3.9560    0.2510    2.8740 H   0  0  0  0  0  0  0  0  0  0  0  0
   -6.2390    0.4970    3.8220 H   0  0  0  0  0  0  0  0  0  0  0  0
   -0.2030   -7.3000    0.4300 H   0  0  0  0  0  0  0  0  0  0  0  0
   -2.4040   -7.2530   -0.6640 H   0  0  0  0  0  0  0  0  0  0  0  0
   -0.0710   -7.0140   -1.8930 H   0  0  0  0  0  0  0  0  0  0  0  0
   -1.7470   -4.3230   -1.3420 H   0  0  0  0  0  0  0  0  0  0  0  0
   -4.2920   -5.5610   -1.6990 H   0  0  0  0  0  0  0  0  0  0  0  0
   -3.9310   -5.4770    0.4610 H   0  0  0  0  0  0  0  0  0  0  0  0
   -1.4980   -3.8450    1.1520 H   0  0  0  0  0  0  0  0  0  0  0  0
   -2.1620   -4.7920    3.5520 H   0  0  0  0  0  0  0  0  0  0  0  0
   -2.7500   -3.2250    2.8740 H   0  0  0  0  0  0  0  0  0  0  0  0
   -4.3670   -4.8580    3.8220 H   0  0  0  0  0  0  0  0  0  0  0  0
    5.2370    4.7660   10.0170 H   0  0  0  0  0  0  0  0  0  0  0  0
    3.8260    6.4570   11.1060 H   0  0  0  0  0  0  0  0  0  0  0  0
    3.7540    5.3220   13.3260 H   0  0  0  0  0  0  0  0  0  0  0  0
    1.9460    4.1170   11.7890 H   0  0  0  0  0  0  0  0  0  0  0  0
    1.9060    5.6690   13.4410 H   0  0  0  0  0  0  0  0  0  0  0  0
    1.4900    6.5440    9.9850 H   0  0  0  0  0  0  0  0  0  0  0  0
    1.7260    3.6240    9.2950 H   0  0  0  0  0  0  0  0  0  0  0  0
    2.0550    4.7330    6.8940 H   0  0  0  0  0  0  0  0  0  0  0  0
    0.4620    4.2150    7.5720 H   0  0  0  0  0  0  0  0  0  0  0  0
    0.6840    6.6250    8.4860 H   0  0  0  0  0  0  0  0  0  0  0  0
    6.9920   -1.1220   10.0170 H   0  0  0  0  0  0  0  0  0  0  0  0
    7.4350    1.0350   11.1080 H   0  0  0  0  0  0  0  0  0  0  0  0
    6.5010    0.3850   13.3270 H   0  0  0  0  0  0  0  0  0  0  0  0
    4.4310    1.0460   11.7870 H   0  0  0  0  0  0  0  0  0  0  0  0
    5.6200    2.0440   13.4400 H   0  0  0  0  0  0  0  0  0  0  0  0
    6.0440    2.9160    9.9860 H   0  0  0  0  0  0  0  0  0  0  0  0
    3.9110    0.9110    9.2950 H   0  0  0  0  0  0  0  0  0  0  0  0
    4.9830    1.3430    6.8950 H   0  0  0  0  0  0  0  0  0  0  0  0
    3.5850    2.2660    7.5710 H   0  0  0  0  0  0  0  0  0  0  0  0
    5.6090    3.5960    8.4840 H   0  0  0  0  0  0  0  0  0  0  0  0
    3.4840   -6.1670   10.0180 H   0  0  0  0  0  0  0  0  0  0  0  0
    5.4450   -5.1670   11.1090 H   0  0  0  0  0  0  0  0  0  0  0  0
    4.3540   -4.8440   13.3280 H   0  0  0  0  0  0  0  0  0  0  0  0
    3.5810   -2.8120   11.7900 H   0  0  0  0  0  0  0  0  0  0  0  0
    5.1020   -3.1190   13.4420 H   0  0  0  0  0  0  0  0  0  0  0  0
    6.0500   -2.9090    9.9850 H   0  0  0  0  0  0  0  0  0  0  0  0
    3.1510   -2.4900    9.2960 H   0  0  0  0  0  0  0  0  0  0  0  0
    4.1580   -3.0580    6.8960 H   0  0  0  0  0  0  0  0  0  0  0  0
  1  2  1  0  0  0  0
  1  4  1  0  0  0  0
  1  9  1  0  0  0  0
  1201  1  0  0  0  0
  2 20  1  0  0  0  0
  4  5  1  0  0  0  0
  4  6  1  0  0  0  0
  4202  1  0  0  0  0
  5203  1  0  0  0  0
  6  7  1  0  0  0  0
  6  8  1  0  0  0  0
  6204  1  0  0  0  0
  7205  1  0  0  0  0
  8 10  1  0  0  0  0
  8 63  1  0  0  0  0
  8206  1  0  0  0  0
  9 10  1  0  0  0  0
 10 12  1  0  0  0  0
 10207  1  0  0  0  0
 11210  1  0  0  0  0
 11 12  1  0  0  0  0
 12208  1  0  0  0  0
 12209  1  0  0  0  0
 13 34  1  0  0  0  0
 13 14  1  0  0  0  0
 14 16  1  0  0  0  0
 14 19  1  0  0  0  0
 14211  1  0  0  0  0
 15213  1  0  0  0  0
 15 16  1  0  0  0  0
 16 18  1  0  0  0  0
 16212  1  0  0  0  0
 17215  1  0  0  0  0
 17 18  1  0  0  0  0
 18 20  1  0  0  0  0
 18214  1  0  0  0  0
 20 22  1  0  0  0  0
 20216  1  0  0  0  0
 21 26  1  0  0  0  0
 19 22  1  0  0  0  0
 22 24  1  0  0  0  0
 22217  1  0  0  0  0
 23 46  1  0  0  0  0
 21 24  1  0  0  0  0
 24218  1  0  0  0  0
 24219  1  0  0  0  0
 25224  1  0  0  0  0
  3 26  1  0  0  0  0
 26220  1  0  0  0  0
 26221  1  0  0  0  0
 27226  1  0  0  0  0
 23 28  1  0  0  0  0
 28 29  1  0  0  0  0
 28 30  1  0  0  0  0
 28222  1  0  0  0  0
 25 30  1  0  0  0  0
 30 32  1  0  0  0  0
 30223  1  0  0  0  0
 31231  1  0  0  0  0
 27 32  1  0  0  0  0
 32 34  1  0  0  0  0
 32225  1  0  0  0  0
 33 58  1  0  0  0  0
 34 36  1  0  0  0  0
 34227  1  0  0  0  0
 35234  1  0  0  0  0
 29 36  1  0  0  0  0
 36 38  1  0  0  0  0
 36228  1  0  0  0  0
 37236  1  0  0  0  0
 31 38  1  0  0  0  0
 38229  1  0  0  0  0
 38230  1  0  0  0  0
 33 40  1  0  0  0  0
 39 40  1  0  0  0  0
 40 42  1  0  0  0  0
 40232  1  0  0  0  0
 41241  1  0  0  0  0
 35 42  1  0  0  0  0
 42 44  1  0  0  0  0
 42233  1  0  0  0  0
 43 70  1  0  0  0  0
 37 44  1  0  0  0  0
 44 46  1  0  0  0  0
 44235  1  0  0  0  0
 45244  1  0  0  0  0
 46 48  1  0  0  0  0
 46237  1  0  0  0  0
 47246  1  0  0  0  0
 39 48  1  0  0  0  0
 48 50  1  0  0  0  0
 48238  1  0  0  0  0
 41 50  1  0  0  0  0
 50239  1  0  0  0  0
 50240  1  0  0  0  0
 51251  1  0  0  0  0
 43 52  1  0  0  0  0
 49 52  1  0  0  0  0
 52 54  1  0  0  0  0
 52242  1  0  0  0  0
 53 82  1  0  0  0  0
 45 54  1  0  0  0  0
 54 56  1  0  0  0  0
 54243  1  0  0  0  0
 55254  1  0  0  0  0
 47 56  1  0  0  0  0
 56 58  1  0  0  0  0
 56245  1  0  0  0  0
 57256  1  0  0  0  0
 58 60  1  0  0  0  0
 58247  1  0  0  0  0
 49 60  1  0  0  0  0
 60 62  1  0  0  0  0
 60248  1  0  0  0  0
 61261  1  0  0  0  0
 51 62  1  0  0  0  0
 62249  1  0  0  0  0
 62250  1  0  0  0  0
 53 64  1  0  0  0  0
 59 64  1  0  0  0  0
 64 66  1  0  0  0  0
 64252  1  0  0  0  0
 65264  1  0  0  0  0
 55 66  1  0  0  0  0
 66 68  1  0  0  0  0
 66253  1  0  0  0  0
 67266  1  0  0  0  0
 57 68  1  0  0  0  0
 68 70  1  0  0  0  0
 68255  1  0  0  0  0
 70 72  1  0  0  0  0
 70257  1  0  0  0  0
 71271  1  0  0  0  0
 59 72  1  0  0  0  0
 72 74  1  0  0  0  0
 72258  1  0  0  0  0
 73106  1  0  0  0  0
 61 74  1  0  0  0  0
 74259  1  0  0  0  0
 74260  1  0  0  0  0
 75274  1  0  0  0  0
 63 76  1  0  0  0  0
 69 76  1  0  0  0  0
 76 78  1  0  0  0  0
 76262  1  0  0  0  0
 77276  1  0  0  0  0
 65 78  1  0  0  0  0
 78 80  1  0  0  0  0
 78263  1  0  0  0  0
 67 80  1  0  0  0  0
 80 82  1  0  0  0  0
 80265  1  0  0  0  0
 81281  1  0  0  0  0
 82 84  1  0  0  0  0
 82267  1  0  0  0  0
 83118  1  0  0  0  0
 69 84  1  0  0  0  0
 84 86  1  0  0  0  0
 84268  1  0  0  0  0
 85284  1  0  0  0  0
 71 86  1  0  0  0  0
 86269  1  0  0  0  0
 86270  1  0  0  0  0
 87286  1  0  0  0  0
 73 88  1  0  0  0  0
 79 88  1  0  0  0  0
 88 90  1  0  0  0  0
 88272  1  0  0  0  0
 75 90  1  0  0  0  0
 90 92  1  0  0  0  0
 90273  1  0  0  0  0
 91291  1  0  0  0  0
 77 92  1  0  0  0  0
 92 94  1  0  0  0  0
 92275  1  0  0  0  0
 93132  1  0  0  0  0
 94 96  1  0  0  0  0
 94133  1  0  0  0  0
 94277  1  0  0  0  0
 95294  1  0  0  0  0
 79 96  1  0  0  0  0
 96 98  1  0  0  0  0
 96278  1  0  0  0  0
 97296  1  0  0  0  0
 81 98  1  0  0  0  0
 98279  1  0  0  0  0
 98280  1  0  0  0  0
 83100  1  0  0  0  0
 89100  1  0  0  0  0
100102  1  0  0  0  0
100282  1  0  0  0  0
101124  1  0  0  0  0
 85102  1  0  0  0  0
102104  1  0  0  0  0
102283  1  0  0  0  0
103143  1  0  0  0  0
 87104  1  0  0  0  0
104106  1  0  0  0  0
104285  1  0  0  0  0
105163  1  0  0  0  0
106108  1  0  0  0  0
106287  1  0  0  0  0
107165  1  0  0  0  0
 89108  1  0  0  0  0
108110  1  0  0  0  0
108288  1  0  0  0  0
 91110  1  0  0  0  0
110289  1  0  0  0  0
110290  1  0  0  0  0
111170  1  0  0  0  0
 93112  1  0  0  0  0
 99112  1  0  0  0  0
112114  1  0  0  0  0
112292  1  0  0  0  0
113149  1  0  0  0  0
 95114  1  0  0  0  0
114116  1  0  0  0  0
114293  1  0  0  0  0
115173  1  0  0  0  0
 97116  1  0  0  0  0
116118  1  0  0  0  0
116295  1  0  0  0  0
117175  1  0  0  0  0
118120  1  0  0  0  0
118297  1  0  0  0  0
 99120  1  0  0  0  0
120122  1  0  0  0  0
120298  1  0  0  0  0
121193  1  0  0  0  0
101122  1  0  0  0  0
122158  1  0  0  0  0
122299  1  0  0  0  0
123155  1  0  0  0  0
  3124  1  0  0  0  0
124159  1  0  0  0  0
124160  1  0  0  0  0
125196  1  0  0  0  0
103126  1  0  0  0  0
109126  1  0  0  0  0
126128  1  0  0  0  0
126161  1  0  0  0  0
127198  1  0  0  0  0
105128  1  0  0  0  0
128130  1  0  0  0  0
128162  1  0  0  0  0
107130  1  0  0  0  0
130132  1  0  0  0  0
130164  1  0  0  0  0
131180  1  0  0  0  0
132134  1  0  0  0  0
132166  1  0  0  0  0
109134  1  0  0  0  0
134136  1  0  0  0  0
134167  1  0  0  0  0
135183  1  0  0  0  0
111136  1  0  0  0  0
136168  1  0  0  0  0
136169  1  0  0  0  0
137185  1  0  0  0  0
113138  1  0  0  0  0
119138  1  0  0  0  0
138140  1  0  0  0  0
138171  1  0  0  0  0
115140  1  0  0  0  0
140142  1  0  0  0  0
140172  1  0  0  0  0
141190  1  0  0  0  0
117142  1  0  0  0  0
142143  1  0  0  0  0
142174  1  0  0  0  0
143144  1  0  0  0  0
143176  1  0  0  0  0
119144  1  0  0  0  0
144145  1  0  0  0  0
144177  1  0  0  0  0
121145  1  0  0  0  0
145191  1  0  0  0  0
145192  1  0  0  0  0
123146  1  0  0  0  0
129146  1  0  0  0  0
146147  1  0  0  0  0
146194  1  0  0  0  0
125147  1  0  0  0  0
147148  1  0  0  0  0
147195  1  0  0  0  0
127148  1  0  0  0  0
148149  1  0  0  0  0
148197  1  0  0  0  0
149150  1  0  0  0  0
149199  1  0  0  0  0
129150  1  0  0  0  0
150151  1  0  0  0  0
150200  1  0  0  0  0
131151  1  0  0  0  0
151178  1  0  0  0  0
151179  1  0  0  0  0
133152  1  0  0  0  0
139152  1  0  0  0  0
152153  1  0  0  0  0
152181  1  0  0  0  0
135153  1  0  0  0  0
153154  1  0  0  0  0
153182  1  0  0  0  0
137154  1  0  0  0  0
154155  1  0  0  0  0
154184  1  0  0  0  0
155156  1  0  0  0  0
155186  1  0  0  0  0
139156  1  0  0  0  0
156157  1  0  0  0  0
156187  1  0  0  0  0
141157  1  0  0  0  0
157188  1  0  0  0  0
157189  1  0  0  0  0
M  END
$$$$
