dimer.pdb
  PyMOL2.5          3D                             0

304319  0  0  0  0  0  0  0  0999 V2000
   -2.5120    5.6590   -0.0265 C   0  0  0  0  0  0  0  0  0  0  0  0
    6.0418   -2.6648    2.5278 N   0  0  0  0  0  0  0  0  0  0  0  0
   -2.7769    4.2756   -0.3531 O   0  0  0  0  0  0  0  0  0  0  0  0
   -1.7545    6.3306   -1.1986 C   0  0  0  0  0  0  0  0  0  0  0  0
   -2.5506    6.3066   -2.3856 O   0  0  0  0  0  0  0  0  0  0  0  0
   -0.3819    5.6590   -1.4369 C   0  0  0  0  0  0  0  0  0  0  0  0
    0.3476    6.3863   -2.4277 O   0  0  0  0  0  0  0  0  0  0  0  0
    0.4267    5.6246   -0.1176 C   0  0  0  0  0  0  0  0  0  0  0  0
   -1.6684    5.6874    1.1430 O   0  0  0  0  0  0  0  0  0  0  0  0
   -0.4007    4.9927    1.0365 C   0  0  0  0  0  0  0  0  0  0  0  0
    0.9925    6.2610    2.6546 O   0  0  0  0  0  0  0  0  0  0  0  0
    0.2846    5.0417    2.4252 C   0  0  0  0  0  0  0  0  0  0  0  0
   -5.0752    0.4957   -0.3534 O   0  0  0  0  0  0  0  0  0  0  0  0
   -5.9919    1.5648   -0.0272 C   0  0  0  0  0  0  0  0  0  0  0  0
   -6.5234    1.9375   -2.3864 O   0  0  0  0  0  0  0  0  0  0  0  0
   -6.0454    2.5750   -1.1998 C   0  0  0  0  0  0  0  0  0  0  0  0
   -4.7791    4.2517   -2.4304 O   0  0  0  0  0  0  0  0  0  0  0  0
   -4.6648    3.2287   -1.4388 C   0  0  0  0  0  0  0  0  0  0  0  0
   -5.4877    2.2418    1.1423 O   0  0  0  0  0  0  0  0  0  0  0  0
   -4.1354    3.8404   -0.1198 C   0  0  0  0  0  0  0  0  0  0  0  0
   -4.2781    4.6800    2.6531 O   0  0  0  0  0  0  0  0  0  0  0  0
   -4.1544    2.8001    1.0349 C   0  0  0  0  0  0  0  0  0  0  0  0
   -3.5642   -3.6622   -0.3580 O   0  0  0  0  0  0  0  0  0  0  0  0
   -3.7654    3.3666    2.4236 C   0  0  0  0  0  0  0  0  0  0  0  0
   -5.5923   -3.8878   -2.3895 O   0  0  0  0  0  0  0  0  0  0  0  0
   -4.9708   -3.7080   -0.0300 C   0  0  0  0  0  0  0  0  0  0  0  0
   -6.3034   -1.0801   -2.4332 O   0  0  0  0  0  0  0  0  0  0  0  0
   -5.7914   -3.1170   -1.2025 C   0  0  0  0  0  0  0  0  0  0  0  0
   -5.1815   -2.8916    1.1403 O   0  0  0  0  0  0  0  0  0  0  0  0
   -5.4358   -1.6316   -1.4405 C   0  0  0  0  0  0  0  0  0  0  0  0
   -6.3278   -0.4257    2.6526 O   0  0  0  0  0  0  0  0  0  0  0  0
   -5.5831   -0.8372   -0.1211 C   0  0  0  0  0  0  0  0  0  0  0  0
    0.6014   -5.0692   -0.4025 O   0  0  0  0  0  0  0  0  0  0  0  0
   -4.7827   -1.5023    1.0334 C   0  0  0  0  0  0  0  0  0  0  0  0
   -0.4868   -6.8218   -2.4054 O   0  0  0  0  0  0  0  0  0  0  0  0
   -4.9816   -0.8447    2.4223 C   0  0  0  0  0  0  0  0  0  0  0  0
   -3.1196   -5.6115   -2.4399 O   0  0  0  0  0  0  0  0  0  0  0  0
   -0.2222   -6.2046   -0.0557 C   0  0  0  0  0  0  0  0  0  0  0  0
   -0.9827   -5.8622    1.1209 O   0  0  0  0  0  0  0  0  0  0  0  0
   -1.2060   -6.4877   -1.2159 C   0  0  0  0  0  0  0  0  0  0  0  0
   -3.6159   -5.2105    2.6510 O   0  0  0  0  0  0  0  0  0  0  0  0
   -2.1418   -5.2802   -1.4522 C   0  0  0  0  0  0  0  0  0  0  0  0
    4.3471   -2.6365   -0.3414 O   0  0  0  0  0  0  0  0  0  0  0  0
   -2.8447   -4.8936   -0.1286 C   0  0  0  0  0  0  0  0  0  0  0  0
    4.9833   -4.5068   -2.4344 O   0  0  0  0  0  0  0  0  0  0  0  0
   -1.8188   -4.6832    1.0198 C   0  0  0  0  0  0  0  0  0  0  0  0
    2.4188   -5.8744   -2.4911 O   0  0  0  0  0  0  0  0  0  0  0  0
   -2.4467   -4.4253    2.4127 C   0  0  0  0  0  0  0  0  0  0  0  0
    3.9113   -4.4268    1.0904 O   0  0  0  0  0  0  0  0  0  0  0  0
    4.6749   -4.0158   -0.0581 C   0  0  0  0  0  0  0  0  0  0  0  0
    1.7581   -6.0743    2.6011 O   0  0  0  0  0  0  0  0  0  0  0  0
    4.2809   -4.9118   -1.2572 C   0  0  0  0  0  0  0  0  0  0  0  0
    4.7935    1.7188   -0.2529 O   0  0  0  0  0  0  0  0  0  0  0  0
    2.7526   -4.9086   -1.4911 C   0  0  0  0  0  0  0  0  0  0  0  0
    6.7308    1.1014   -2.3025 O   0  0  0  0  0  0  0  0  0  0  0  0
    2.0145   -5.2505   -0.1746 C   0  0  0  0  0  0  0  0  0  0  0  0
    6.1439   -1.7352   -2.3943 O   0  0  0  0  0  0  0  0  0  0  0  0
    2.4752   -4.3284    0.9852 C   0  0  0  0  0  0  0  0  0  0  0  0
    5.9852    0.3077    1.2213 O   0  0  0  0  0  0  0  0  0  0  0  0
    1.8833   -4.6696    2.3756 C   0  0  0  0  0  0  0  0  0  0  0  0
    5.6460   -4.6466    3.5086 O   0  0  0  0  0  0  0  0  0  0  0  0
    6.0969    1.1660    0.0587 C   0  0  0  0  0  0  0  0  0  0  0  0
    1.6121    4.8292   -0.3490 O   0  0  0  0  0  0  0  0  0  0  0  0
    6.5779    0.3013   -1.1314 C   0  0  0  0  0  0  0  0  0  0  0  0
    3.3511    5.8810   -2.3910 O   0  0  0  0  0  0  0  0  0  0  0  0
    5.6064   -0.8721   -1.3917 C   0  0  0  0  0  0  0  0  0  0  0  0
    5.2093    3.6609   -2.4035 O   0  0  0  0  0  0  0  0  0  0  0  0
    5.4092   -1.6857   -0.0976 C   0  0  0  0  0  0  0  0  0  0  0  0
    3.4076    4.8512    1.1516 O   0  0  0  0  0  0  0  0  0  0  0  0
    5.0499   -0.7990    1.1281 C   0  0  0  0  0  0  0  0  0  0  0  0
    5.5033    3.1238    2.6863 O   0  0  0  0  0  0  0  0  0  0  0  0
    5.0648   -1.5793    2.4671 C   0  0  0  0  0  0  0  0  0  0  0  0
    2.8627    5.4802   -0.0274 C   0  0  0  0  0  0  0  0  0  0  0  0
    3.8605    5.2837   -1.1956 C   0  0  0  0  0  0  0  0  0  0  0  0
    4.1880    3.7855   -1.4124 C   0  0  0  0  0  0  0  0  0  0  0  0
    4.6661    3.1522   -0.0801 C   0  0  0  0  0  0  0  0  0  0  0  0
    3.6498    3.4249    1.0615 C   0  0  0  0  0  0  0  0  0  0  0  0
    4.1078    2.9240    2.4536 C   0  0  0  0  0  0  0  0  0  0  0  0
    6.0296   -3.4921    3.6255 C   0  0  0  0  0  0  0  0  0  0  0  0
    6.7195   -2.9854    4.8921 C   0  0  0  0  0  0  0  0  0  0  0  0
   -3.4407    6.2123    0.1637 H   0  0  0  0  0  0  0  0  0  0  0  0
   -1.5746    7.3762   -0.9170 H   0  0  0  0  0  0  0  0  0  0  0  0
   -2.9795    5.4295   -2.4353 H   0  0  0  0  0  0  0  0  0  0  0  0
   -0.5473    4.6279   -1.7767 H   0  0  0  0  0  0  0  0  0  0  0  0
   -0.1979    6.3896   -3.2359 H   0  0  0  0  0  0  0  0  0  0  0  0
    0.6756    6.6600    0.1467 H   0  0  0  0  0  0  0  0  0  0  0  0
   -0.5851    3.9385    0.7954 H   0  0  0  0  0  0  0  0  0  0  0  0
    0.9784    4.1964    2.5129 H   0  0  0  0  0  0  0  0  0  0  0  0
   -0.4859    4.9161    3.1987 H   0  0  0  0  0  0  0  0  0  0  0  0
    1.8870    6.1527    2.2793 H   0  0  0  0  0  0  0  0  0  0  0  0
   -7.0034    1.1837    0.1635 H   0  0  0  0  0  0  0  0  0  0  0  0
   -6.7502    3.3681   -0.9182 H   0  0  0  0  0  0  0  0  0  0  0  0
   -6.1032    1.0562   -2.4371 H   0  0  0  0  0  0  0  0  0  0  0  0
   -3.9613    2.4566   -1.7778 H   0  0  0  0  0  0  0  0  0  0  0  0
   -5.1206    3.8268   -3.2386 H   0  0  0  0  0  0  0  0  0  0  0  0
   -4.7922    4.6786    0.1445 H   0  0  0  0  0  0  0  0  0  0  0  0
   -3.4447    1.9990    0.7938 H   0  0  0  0  0  0  0  0  0  0  0  0
   -2.6719    3.3826    2.5116 H   0  0  0  0  0  0  0  0  0  0  0  0
   -4.1472    2.6858    3.1972 H   0  0  0  0  0  0  0  0  0  0  0  0
   -3.6340    5.3122    2.2815 H   0  0  0  0  0  0  0  0  0  0  0  0
   -5.3068   -4.7353    0.1606 H   0  0  0  0  0  0  0  0  0  0  0  0
   -6.8512   -3.1703   -0.9218 H   0  0  0  0  0  0  0  0  0  0  0  0
   -4.6422   -4.1136   -2.4381 H   0  0  0  0  0  0  0  0  0  0  0  0
   -4.3927   -1.5664   -1.7779 H   0  0  0  0  0  0  0  0  0  0  0  0
   -6.1857   -1.6137   -3.2407 H   0  0  0  0  0  0  0  0  0  0  0  0
   -6.6479   -0.8273    0.1432 H   0  0  0  0  0  0  0  0  0  0  0  0
   -3.7137   -1.4495    0.7922 H   0  0  0  0  0  0  0  0  0  0  0  0
   -4.3117    0.0198    2.5100 H   0  0  0  0  0  0  0  0  0  0  0  0
   -4.6875   -1.5678    3.1958 H   0  0  0  0  0  0  0  0  0  0  0  0
   -6.4203    0.4717    2.2802 H   0  0  0  0  0  0  0  0  0  0  0  0
    0.3824   -7.1015    0.1308 H   0  0  0  0  0  0  0  0  0  0  0  0
   -1.8252   -7.3459   -0.9233 H   0  0  0  0  0  0  0  0  0  0  0  0
    0.2807   -6.2191   -2.4638 H   0  0  0  0  0  0  0  0  0  0  0  0
   -1.5403   -4.4274   -1.7944 H   0  0  0  0  0  0  0  0  0  0  0  0
   -2.6332   -5.8478   -3.2511 H   0  0  0  0  0  0  0  0  0  0  0  0
   -3.5183   -5.7161    0.1421 H   0  0  0  0  0  0  0  0  0  0  0  0
   -1.1939   -3.8154    0.7743 H   0  0  0  0  0  0  0  0  0  0  0  0
   -2.6990   -3.3612    2.5012 H   0  0  0  0  0  0  0  0  0  0  0  0
   -1.6937   -4.6492    3.1813 H   0  0  0  0  0  0  0  0  0  0  0  0
   -4.3742   -4.7223    2.2781 H   0  0  0  0  0  0  0  0  0  0  0  0
    5.7459   -4.1431    0.1440 H   0  0  0  0  0  0  0  0  0  0  0  0
    4.5789   -5.9377   -1.0063 H   0  0  0  0  0  0  0  0  0  0  0  0
    5.0132   -3.5293   -2.4381 H   0  0  0  0  0  0  0  0  0  0  0  0
    2.4462   -3.9064   -1.8198 H   0  0  0  0  0  0  0  0  0  0  0  0
    2.9437   -5.6559   -3.2832 H   0  0  0  0  0  0  0  0  0  0  0  0
    2.2554   -6.2896    0.0815 H   0  0  0  0  0  0  0  0  0  0  0  0
    2.1972   -3.2943    0.7477 H   0  0  0  0  0  0  0  0  0  0  0  0
    0.8986   -4.1963    2.4731 H   0  0  0  0  0  0  0  0  0  0  0  0
    2.5354   -4.2341    3.1454 H   0  0  0  0  0  0  0  0  0  0  0  0
    0.9058   -6.3547    2.2177 H   0  0  0  0  0  0  0  0  0  0  0  0
    6.8335    1.9577    0.2472 H   0  0  0  0  0  0  0  0  0  0  0  0
    7.5556   -0.1183   -0.8596 H   0  0  0  0  0  0  0  0  0  0  0  0
    5.9379    1.6690   -2.3726 H   0  0  0  0  0  0  0  0  0  0  0  0
    4.6341   -0.4738   -1.7117 H   0  0  0  0  0  0  0  0  0  0  0  0
    6.2503   -1.2070   -3.2038 H   0  0  0  0  0  0  0  0  0  0  0  0
    6.3664   -2.1888    0.0918 H   0  0  0  0  0  0  0  0  0  0  0  0
    4.0394   -0.3897    0.9846 H   0  0  0  0  0  0  0  0  0  0  0  0
    4.0854   -2.0478    2.5864 H   0  0  0  0  0  0  0  0  0  0  0  0
    5.2151   -0.8961    3.3103 H   0  0  0  0  0  0  0  0  0  0  0  0
    6.1160   -3.1604    1.6480 H   0  0  0  0  0  0  0  0  0  0  0  0
    2.7225    6.5549    0.1479 H   0  0  0  0  0  0  0  0  0  0  0  0
    4.7914    5.7954   -0.9191 H   0  0  0  0  0  0  0  0  0  0  0  0
    2.3909    5.7006   -2.4265 H   0  0  0  0  0  0  0  0  0  0  0  0
    3.2781    3.2698   -1.7468 H   0  0  0  0  0  0  0  0  0  0  0  0
    4.8819    4.1074   -3.2067 H   0  0  0  0  0  0  0  0  0  0  0  0
    5.6261    3.6159    0.1794 H   0  0  0  0  0  0  0  0  0  0  0  0
    2.7098    2.9140    0.8185 H   0  0  0  0  0  0  0  0  0  0  0  0
    3.8761    1.8551    2.5405 H   0  0  0  0  0  0  0  0  0  0  0  0
    3.5284    3.4520    3.2232 H   0  0  0  0  0  0  0  0  0  0  0  0
    5.9754    2.3734    2.2783 H   0  0  0  0  0  0  0  0  0  0  0  0
    7.4597   -3.7516    5.1774 H   0  0  0  0  0  0  0  0  0  0  0  0
    7.2750   -2.0608    4.6681 H   0  0  0  0  0  0  0  0  0  0  0  0
    4.1720    4.5825   11.2583 C   0  0  0  0  0  0  0  0  0  0  0  0
    5.8568   -2.4907    8.5990 N   0  0  0  0  0  0  0  0  0  0  0  0
    3.9862    3.1884   11.5907 O   0  0  0  0  0  0  0  0  0  0  0  0
    3.6651    5.4606   12.4287 C   0  0  0  0  0  0  0  0  0  0  0  0
    4.4135    5.1893   13.6158 O   0  0  0  0  0  0  0  0  0  0  0  0
    2.1519    5.2530   12.6677 C   0  0  0  0  0  0  0  0  0  0  0  0
    1.6884    6.1720   13.6592 O   0  0  0  0  0  0  0  0  0  0  0  0
    1.3749    5.4754   11.3484 C   0  0  0  0  0  0  0  0  0  0  0  0
    3.3804    4.8710   10.0874 O   0  0  0  0  0  0  0  0  0  0  0  0
    1.9581    4.6125   10.1947 C   0  0  0  0  0  0  0  0  0  0  0  0
    1.0372    6.2548    8.5750 O   0  0  0  0  0  0  0  0  0  0  0  0
    1.3228    4.8743    8.8058 C   0  0  0  0  0  0  0  0  0  0  0  0
    4.9570   -1.1137   11.6300 O   0  0  0  0  0  0  0  0  0  0  0  0
    6.1701   -0.4012   11.2905 C   0  0  0  0  0  0  0  0  0  0  0  0
    6.8024   -0.2028   13.6440 O   0  0  0  0  0  0  0  0  0  0  0  0
    6.5490    0.5469   12.4535 C   0  0  0  0  0  0  0  0  0  0  0  0
    5.8803    2.5448   13.6738 O   0  0  0  0  0  0  0  0  0  0  0  0
    5.4476    1.6065   12.6868 C   0  0  0  0  0  0  0  0  0  0  0  0
    5.9118    0.3959   10.1173 O   0  0  0  0  0  0  0  0  0  0  0  0
    5.1382    2.3468   11.3633 C   0  0  0  0  0  0  0  0  0  0  0  0
    5.5381    3.0841    8.5857 O   0  0  0  0  0  0  0  0  0  0  0  0
    4.8257    1.3484   10.2148 C   0  0  0  0  0  0  0  0  0  0  0  0
    2.2013   -4.5949   11.6057 O   0  0  0  0  0  0  0  0  0  0  0  0
    4.6412    1.9973    8.8199 C   0  0  0  0  0  0  0  0  0  0  0  0
    4.0604   -5.4637   13.6198 O   0  0  0  0  0  0  0  0  0  0  0  0
    3.5233   -5.0671   11.2633 C   0  0  0  0  0  0  0  0  0  0  0  0
    5.6317   -3.0207   13.6774 O   0  0  0  0  0  0  0  0  0  0  0  0
    4.4890   -4.7773   12.4403 C   0  0  0  0  0  0  0  0  0  0  0  0
    3.9668   -4.3350   10.1004 O   0  0  0  0  0  0  0  0  0  0  0  0
    4.6179   -3.2579   12.6965 C   0  0  0  0  0  0  0  0  0  0  0  0
    7.7417   -2.4829    7.4251 O   0  0  0  0  0  0  0  0  0  0  0  0
    4.9900   -2.5357   11.3805 C   0  0  0  0  0  0  0  0  0  0  0  0
   -2.2129   -4.5977   11.5809 O   0  0  0  0  0  0  0  0  0  0  0  0
    4.0072   -2.8915   10.2256 C   0  0  0  0  0  0  0  0  0  0  0  0
   -1.7455   -6.5912   13.6091 O   0  0  0  0  0  0  0  0  0  0  0  0
    4.4150   -2.3174    8.8427 C   0  0  0  0  0  0  0  0  0  0  0  0
    1.1396   -6.3096   13.6658 O   0  0  0  0  0  0  0  0  0  0  0  0
   -1.7766   -5.9365   11.2521 C   0  0  0  0  0  0  0  0  0  0  0  0
   -0.9305   -5.8555   10.0870 O   0  0  0  0  0  0  0  0  0  0  0  0
   -0.9473   -6.5128   12.4263 C   0  0  0  0  0  0  0  0  0  0  0  0
    1.7985   -6.0724    8.5884 O   0  0  0  0  0  0  0  0  0  0  0  0
    0.3286   -5.6760   12.6741 C   0  0  0  0  0  0  0  0  0  0  0  0
   -4.9701   -1.1350   11.5812 O   0  0  0  0  0  0  0  0  0  0  0  0
    1.1320   -5.5345   11.3595 C   0  0  0  0  0  0  0  0  0  0  0  0
   -6.2247   -2.7491   13.6131 O   0  0  0  0  0  0  0  0  0  0  0  0
    0.2385   -5.0069   10.2020 C   0  0  0  0  0  0  0  0  0  0  0  0
   -4.2016   -4.8233   13.6586 O   0  0  0  0  0  0  0  0  0  0  0  0
    0.9289   -4.9621    8.8154 C   0  0  0  0  0  0  0  0  0  0  0  0
   -5.1571   -2.9195   10.0849 O   0  0  0  0  0  0  0  0  0  0  0  0
   -5.7436   -2.3119   11.2542 C   0  0  0  0  0  0  0  0  0  0  0  0
   -3.6492   -5.1863    8.5749 O   0  0  0  0  0  0  0  0  0  0  0  0
   -5.6692   -3.3210   12.4267 C   0  0  0  0  0  0  0  0  0  0  0  0
   -3.9864    3.1782   11.5820 O   0  0  0  0  0  0  0  0  0  0  0  0
   -4.2171   -3.7948   12.6663 C   0  0  0  0  0  0  0  0  0  0  0  0
   -6.0295    3.1517   13.6148 O   0  0  0  0  0  0  0  0  0  0  0  0
   -3.6151   -4.3356   11.3476 C   0  0  0  0  0  0  0  0  0  0  0  0
   -6.3901    0.2761   13.6585 O   0  0  0  0  0  0  0  0  0  0  0  0
   -3.7642   -3.3057   10.1929 C   0  0  0  0  0  0  0  0  0  0  0  0
   -5.4988    2.2123   10.0859 O   0  0  0  0  0  0  0  0  0  0  0  0
   -3.3065   -3.8186    8.8043 C   0  0  0  0  0  0  0  0  0  0  0  0
   -6.3309   -0.3796    8.5756 O   0  0  0  0  0  0  0  0  0  0  0  0
   -5.3889    3.0492   11.2555 C   0  0  0  0  0  0  0  0  0  0  0  0
   -0.0010    5.0995   11.5818 O   0  0  0  0  0  0  0  0  0  0  0  0
   -6.1309    2.3613   12.4281 C   0  0  0  0  0  0  0  0  0  0  0  0
   -1.2958    6.6798   13.6150 O   0  0  0  0  0  0  0  0  0  0  0  0
   -5.5956    0.9307   12.6670 C   0  0  0  0  0  0  0  0  0  0  0  0
   -3.7680    5.1678   13.6594 O   0  0  0  0  0  0  0  0  0  0  0  0
   -5.6421    0.1233   11.3480 C   0  0  0  0  0  0  0  0  0  0  0  0
   -1.6996    5.6788   10.0862 O   0  0  0  0  0  0  0  0  0  0  0  0
   -4.9314    0.8828   10.1930 C   0  0  0  0  0  0  0  0  0  0  0  0
   -4.2444    4.7123    8.5760 O   0  0  0  0  0  0  0  0  0  0  0  0
   -5.0478    0.2052    8.8044 C   0  0  0  0  0  0  0  0  0  0  0  0
   -0.9768    6.1151   11.2556 C   0  0  0  0  0  0  0  0  0  0  0  0
   -1.9770    6.2659   12.4285 C   0  0  0  0  0  0  0  0  0  0  0  0
   -2.7612    4.9552   12.6676 C   0  0  0  0  0  0  0  0  0  0  0  0
   -3.4216    4.4880   11.3487 C   0  0  0  0  0  0  0  0  0  0  0  0
   -2.3848    4.4060   10.1936 C   0  0  0  0  0  0  0  0  0  0  0  0
   -2.9871    4.0739    8.8051 C   0  0  0  0  0  0  0  0  0  0  0  0
    6.5319   -2.5113    7.3897 C   0  0  0  0  0  0  0  0  0  0  0  0
    5.7591   -2.7778    6.0850 C   0  0  0  0  0  0  0  0  0  0  0  0
    5.0736   -1.9453    5.8920 H   0  0  0  0  0  0  0  0  0  0  0  0
    5.2278    4.8139   11.0674 H   0  0  0  0  0  0  0  0  0  0  0  0
    3.8220    6.5094   12.1452 H   0  0  0  0  0  0  0  0  0  0  0  0
    4.5436    4.2217   13.6672 H   0  0  0  0  0  0  0  0  0  0  0  0
    1.9847    4.2219   13.0067 H   0  0  0  0  0  0  0  0  0  0  0  0
    2.2068    6.0027   14.4674 H   0  0  0  0  0  0  0  0  0  0  0  0
    1.4682    6.5359   11.0830 H   0  0  0  0  0  0  0  0  0  0  0  0
    1.7998    3.5542   10.4368 H   0  0  0  0  0  0  0  0  0  0  0  0
    0.3969    4.2921    8.7187 H   0  0  0  0  0  0  0  0  0  0  0  0
    2.0135    4.5107    8.0323 H   0  0  0  0  0  0  0  0  0  0  0  0
    0.1526    6.4345    8.9464 H   0  0  0  0  0  0  0  0  0  0  0  0
    7.0046   -1.0889   11.1032 H   0  0  0  0  0  0  0  0  0  0  0  0
    7.4687    1.0719   12.1641 H   0  0  0  0  0  0  0  0  0  0  0  0
    6.1254   -0.9056   13.6984 H   0  0  0  0  0  0  0  0  0  0  0  0
    4.5356    1.0991   13.0287 H   0  0  0  0  0  0  0  0  0  0  0  0
    6.0706    2.0363   14.4835 H   0  0  0  0  0  0  0  0  0  0  0  0
    6.0259    2.9329   11.0946 H   0  0  0  0  0  0  0  0  0  0  0  0
    3.8976    0.8163   10.4579 H   0  0  0  0  0  0  0  0  0  0  0  0
    3.6075    2.3514    8.7220 H   0  0  0  0  0  0  0  0  0  0  0  0
    4.7979    1.2249    8.0541 H   0  0  0  0  0  0  0  0  0  0  0  0
    5.1249    3.8865    8.9572 H   0  0  0  0  0  0  0  0  0  0  0  0
    3.5252   -6.1454   11.0572 H   0  0  0  0  0  0  0  0  0  0  0  0
    5.4784   -5.1575   12.1546 H   0  0  0  0  0  0  0  0  0  0  0  0
    3.0888   -5.3737   13.6767 H   0  0  0  0  0  0  0  0  0  0  0  0
    3.6530   -2.8735   13.0543 H   0  0  0  0  0  0  0  0  0  0  0  0
    5.3616   -3.4908   14.4884 H   0  0  0  0  0  0  0  0  0  0  0  0
    5.9997   -2.8721   11.1133 H   0  0  0  0  0  0  0  0  0  0  0  0
    3.0091   -2.5138   10.4784 H   0  0  0  0  0  0  0  0  0  0  0  0
    4.1894   -1.2411    8.8254 H   0  0  0  0  0  0  0  0  0  0  0  0
    3.8209   -2.8031    8.0545 H   0  0  0  0  0  0  0  0  0  0  0  0
    6.4532   -2.3333    9.4082 H   0  0  0  0  0  0  0  0  0  0  0  0
   -2.6279   -6.6004   11.0549 H   0  0  0  0  0  0  0  0  0  0  0  0
   -0.6367   -7.5268   12.1431 H   0  0  0  0  0  0  0  0  0  0  0  0
   -2.2724   -5.7696   13.6636 H   0  0  0  0  0  0  0  0  0  0  0  0
    0.0343   -4.6750   13.0166 H   0  0  0  0  0  0  0  0  0  0  0  0
    0.5998   -6.3743   14.4749 H   0  0  0  0  0  0  0  0  0  0  0  0
    1.5143   -6.5280   11.0941 H   0  0  0  0  0  0  0  0  0  0  0  0
   -0.0783   -3.9852   10.4458 H   0  0  0  0  0  0  0  0  0  0  0  0
    1.4996   -4.0291    8.7281 H   0  0  0  0  0  0  0  0  0  0  0  0
    0.1505   -4.9444    8.0396 H   0  0  0  0  0  0  0  0  0  0  0  0
    2.6612   -5.8510    8.9868 H   0  0  0  0  0  0  0  0  0  0  0  0
   -6.7951   -2.0622   11.0630 H   0  0  0  0  0  0  0  0  0  0  0  0
   -6.2677   -4.1969   12.1448 H   0  0  0  0  0  0  0  0  0  0  0  0
   -5.9202   -1.8216   13.6635 H   0  0  0  0  0  0  0  0  0  0  0  0
   -3.6167   -2.9399   13.0048 H   0  0  0  0  0  0  0  0  0  0  0  0
   -4.5957   -4.4451   14.4661 H   0  0  0  0  0  0  0  0  0  0  0  0
   -4.1616   -5.2495   11.0834 H   0  0  0  0  0  0  0  0  0  0  0  0
   -3.1611   -2.4217   10.4344 H   0  0  0  0  0  0  0  0  0  0  0  0
   -2.2198   -3.6963    8.7162 H   0  0  0  0  0  0  0  0  0  0  0  0
   -3.7713   -3.1916    8.0306 H   0  0  0  0  0  0  0  0  0  0  0  0
   -2.9289   -5.7320    8.9436 H   0  0  0  0  0  0  0  0  0  0  0  0
   -5.8495    4.0271   11.0651 H   0  0  0  0  0  0  0  0  0  0  0  0
   -7.1890    2.2831   12.1468 H   0  0  0  0  0  0  0  0  0  0  0  0
   -5.1144    3.4917   13.6648 H   0  0  0  0  0  0  0  0  0  0  0  0
   -4.5529    0.9945   13.0058 H   0  0  0  0  0  0  0  0  0  0  0  0
   -6.3395    0.8186   14.4669 H   0  0  0  0  0  0  0  0  0  0  0  0
   -6.6972   -0.0210   11.0840 H   0  0  0  0  0  0  0  0  0  0  0  0
   -3.8641    0.9630   10.4336 H   0  0  0  0  0  0  0  0  0  0  0  0
   -4.2747   -0.5683    8.7161 H   0  0  0  0  0  0  0  0  0  0  0  0
   -4.8477    0.9594    8.0306 H   0  0  0  0  0  0  0  0  0  0  0  0
   -6.3083   -1.2829    8.9446 H   0  0  0  0  0  0  0  0  0  0  0  0
   -0.4999    7.0851   11.0650 H   0  0  0  0  0  0  0  0  0  0  0  0
   -2.6983    7.0442   12.1473 H   0  0  0  0  0  0  0  0  0  0  0  0
   -0.4590    6.1768   13.6648 H   0  0  0  0  0  0  0  0  0  0  0  0
   -2.0608    4.1800   13.0061 H   0  0  0  0  0  0  0  0  0  0  0  0
   -3.3120    5.4668   14.4676 H   0  0  0  0  0  0  0  0  0  0  0  0
   -4.1923    5.2230   11.0848 H   0  0  0  0  0  0  0  0  0  0  0  0
   -1.6564    3.6218   10.4344 H   0  0  0  0  0  0  0  0  0  0  0  0
   -3.1098    2.9872    8.7172 H   0  0  0  0  0  0  0  0  0  0  0  0
   -2.2727    4.3875    8.0312 H   0  0  0  0  0  0  0  0  0  0  0  0
   -4.9364    4.1320    8.9461 H   0  0  0  0  0  0  0  0  0  0  0  0
    5.1576   -3.6810    6.2170 H   0  0  0  0  0  0  0  0  0  0  0  0
  1  3  1  0  0  0  0
  1  4  1  0  0  0  0
  1  9  1  0  0  0  0
  1 81  1  0  0  0  0
  2140  1  0  0  0  0
  3 20  1  0  0  0  0
  4  5  1  0  0  0  0
  4  6  1  0  0  0  0
  4 82  1  0  0  0  0
  5 83  1  0  0  0  0
  6  7  1  0  0  0  0
  6  8  1  0  0  0  0
  6 84  1  0  0  0  0
  7 85  1  0  0  0  0
  8 10  1  0  0  0  0
  8 63  1  0  0  0  0
  8 86  1  0  0  0  0
  9 10  1  0  0  0  0
 10 12  1  0  0  0  0
 10 87  1  0  0  0  0
 11 90  1  0  0  0  0
 11 12  1  0  0  0  0
 12 88  1  0  0  0  0
 12 89  1  0  0  0  0
 13 32  1  0  0  0  0
 13 14  1  0  0  0  0
 14 16  1  0  0  0  0
 14 19  1  0  0  0  0
 14 91  1  0  0  0  0
 15 93  1  0  0  0  0
 15 16  1  0  0  0  0
 16 18  1  0  0  0  0
 16 92  1  0  0  0  0
 17 95  1  0  0  0  0
 17 18  1  0  0  0  0
 18 20  1  0  0  0  0
 18 94  1  0  0  0  0
 20 22  1  0  0  0  0
 20 96  1  0  0  0  0
 21100  1  0  0  0  0
 19 22  1  0  0  0  0
 22 24  1  0  0  0  0
 22 97  1  0  0  0  0
 23 44  1  0  0  0  0
 21 24  1  0  0  0  0
 24 98  1  0  0  0  0
 24 99  1  0  0  0  0
 25103  1  0  0  0  0
 23 26  1  0  0  0  0
 26 28  1  0  0  0  0
 26 29  1  0  0  0  0
 26101  1  0  0  0  0
 27105  1  0  0  0  0
 25 28  1  0  0  0  0
 28 30  1  0  0  0  0
 28102  1  0  0  0  0
 27 30  1  0  0  0  0
 30 32  1  0  0  0  0
 30104  1  0  0  0  0
 31110  1  0  0  0  0
 32 34  1  0  0  0  0
 32106  1  0  0  0  0
 33 56  1  0  0  0  0
 29 34  1  0  0  0  0
 34 36  1  0  0  0  0
 34107  1  0  0  0  0
 35113  1  0  0  0  0
 31 36  1  0  0  0  0
 36108  1  0  0  0  0
 36109  1  0  0  0  0
 37115  1  0  0  0  0
 33 38  1  0  0  0  0
 38 39  1  0  0  0  0
 38 40  1  0  0  0  0
 38111  1  0  0  0  0
 35 40  1  0  0  0  0
 40 42  1  0  0  0  0
 40112  1  0  0  0  0
 41120  1  0  0  0  0
 37 42  1  0  0  0  0
 42 44  1  0  0  0  0
 42114  1  0  0  0  0
 43 68  1  0  0  0  0
 44 46  1  0  0  0  0
 44116  1  0  0  0  0
 45123  1  0  0  0  0
 39 46  1  0  0  0  0
 46 48  1  0  0  0  0
 46117  1  0  0  0  0
 47125  1  0  0  0  0
 41 48  1  0  0  0  0
 48118  1  0  0  0  0
 48119  1  0  0  0  0
 43 50  1  0  0  0  0
 49 50  1  0  0  0  0
 50 52  1  0  0  0  0
 50121  1  0  0  0  0
 51130  1  0  0  0  0
 45 52  1  0  0  0  0
 52 54  1  0  0  0  0
 52122  1  0  0  0  0
 53 76  1  0  0  0  0
 47 54  1  0  0  0  0
 54 56  1  0  0  0  0
 54124  1  0  0  0  0
 55133  1  0  0  0  0
 56 58  1  0  0  0  0
 56126  1  0  0  0  0
 57135  1  0  0  0  0
 49 58  1  0  0  0  0
 58 60  1  0  0  0  0
 58127  1  0  0  0  0
 51 60  1  0  0  0  0
 60128  1  0  0  0  0
 60129  1  0  0  0  0
 61 79  2  0  0  0  0
 53 62  1  0  0  0  0
 59 62  1  0  0  0  0
 62 64  1  0  0  0  0
 62131  1  0  0  0  0
 55 64  1  0  0  0  0
 64 66  1  0  0  0  0
 64132  1  0  0  0  0
 65143  1  0  0  0  0
 57 66  1  0  0  0  0
 66 68  1  0  0  0  0
 66134  1  0  0  0  0
 67145  1  0  0  0  0
 68 70  1  0  0  0  0
 68136  1  0  0  0  0
 59 70  1  0  0  0  0
 70 72  1  0  0  0  0
 70137  1  0  0  0  0
 71150  1  0  0  0  0
  2 72  1  0  0  0  0
 72138  1  0  0  0  0
 72139  1  0  0  0  0
 63 73  1  0  0  0  0
 69 73  1  0  0  0  0
 73 74  1  0  0  0  0
 73141  1  0  0  0  0
 65 74  1  0  0  0  0
 74 75  1  0  0  0  0
 74142  1  0  0  0  0
 67 75  1  0  0  0  0
 75 76  1  0  0  0  0
 75144  1  0  0  0  0
 76 77  1  0  0  0  0
 76146  1  0  0  0  0
 69 77  1  0  0  0  0
 77 78  1  0  0  0  0
 77147  1  0  0  0  0
 71 78  1  0  0  0  0
 78148  1  0  0  0  0
 78149  1  0  0  0  0
  2 79  1  0  0  0  0
 79 80  1  0  0  0  0
 80232  1  0  0  0  0
 80151  1  0  0  0  0
 80152  1  0  0  0  0
153155  1  0  0  0  0
153156  1  0  0  0  0
153161  1  0  0  0  0
153234  1  0  0  0  0
154263  1  0  0  0  0
155172  1  0  0  0  0
156157  1  0  0  0  0
156158  1  0  0  0  0
156235  1  0  0  0  0
157236  1  0  0  0  0
158159  1  0  0  0  0
158160  1  0  0  0  0
158237  1  0  0  0  0
159238  1  0  0  0  0
160162  1  0  0  0  0
160215  1  0  0  0  0
160239  1  0  0  0  0
161162  1  0  0  0  0
162164  1  0  0  0  0
162240  1  0  0  0  0
163243  1  0  0  0  0
163164  1  0  0  0  0
164241  1  0  0  0  0
164242  1  0  0  0  0
165184  1  0  0  0  0
165166  1  0  0  0  0
166168  1  0  0  0  0
166171  1  0  0  0  0
166244  1  0  0  0  0
167246  1  0  0  0  0
167168  1  0  0  0  0
168170  1  0  0  0  0
168245  1  0  0  0  0
169248  1  0  0  0  0
169170  1  0  0  0  0
170172  1  0  0  0  0
170247  1  0  0  0  0
172174  1  0  0  0  0
172249  1  0  0  0  0
173253  1  0  0  0  0
171174  1  0  0  0  0
174176  1  0  0  0  0
174250  1  0  0  0  0
175196  1  0  0  0  0
173176  1  0  0  0  0
176251  1  0  0  0  0
176252  1  0  0  0  0
177256  1  0  0  0  0
175178  1  0  0  0  0
178180  1  0  0  0  0
178181  1  0  0  0  0
178254  1  0  0  0  0
179258  1  0  0  0  0
177180  1  0  0  0  0
180182  1  0  0  0  0
180255  1  0  0  0  0
179182  1  0  0  0  0
182184  1  0  0  0  0
182257  1  0  0  0  0
183231  2  0  0  0  0
184186  1  0  0  0  0
184259  1  0  0  0  0
185208  1  0  0  0  0
181186  1  0  0  0  0
186188  1  0  0  0  0
186260  1  0  0  0  0
187266  1  0  0  0  0
154188  1  0  0  0  0
188261  1  0  0  0  0
188262  1  0  0  0  0
189268  1  0  0  0  0
185190  1  0  0  0  0
190191  1  0  0  0  0
190192  1  0  0  0  0
190264  1  0  0  0  0
187192  1  0  0  0  0
192194  1  0  0  0  0
192265  1  0  0  0  0
193273  1  0  0  0  0
189194  1  0  0  0  0
194196  1  0  0  0  0
194267  1  0  0  0  0
195220  1  0  0  0  0
196198  1  0  0  0  0
196269  1  0  0  0  0
197276  1  0  0  0  0
191198  1  0  0  0  0
198200  1  0  0  0  0
198270  1  0  0  0  0
199278  1  0  0  0  0
193200  1  0  0  0  0
200271  1  0  0  0  0
200272  1  0  0  0  0
195202  1  0  0  0  0
201202  1  0  0  0  0
202204  1  0  0  0  0
202274  1  0  0  0  0
203283  1  0  0  0  0
197204  1  0  0  0  0
204206  1  0  0  0  0
204275  1  0  0  0  0
205228  1  0  0  0  0
199206  1  0  0  0  0
206208  1  0  0  0  0
206277  1  0  0  0  0
207286  1  0  0  0  0
208210  1  0  0  0  0
208279  1  0  0  0  0
209288  1  0  0  0  0
201210  1  0  0  0  0
210212  1  0  0  0  0
210280  1  0  0  0  0
203212  1  0  0  0  0
212281  1  0  0  0  0
212282  1  0  0  0  0
213293  1  0  0  0  0
205214  1  0  0  0  0
211214  1  0  0  0  0
214216  1  0  0  0  0
214284  1  0  0  0  0
207216  1  0  0  0  0
216218  1  0  0  0  0
216285  1  0  0  0  0
217296  1  0  0  0  0
209218  1  0  0  0  0
218220  1  0  0  0  0
218287  1  0  0  0  0
219298  1  0  0  0  0
220222  1  0  0  0  0
220289  1  0  0  0  0
211222  1  0  0  0  0
222224  1  0  0  0  0
222290  1  0  0  0  0
223303  1  0  0  0  0
213224  1  0  0  0  0
224291  1  0  0  0  0
224292  1  0  0  0  0
215225  1  0  0  0  0
221225  1  0  0  0  0
225226  1  0  0  0  0
225294  1  0  0  0  0
217226  1  0  0  0  0
226227  1  0  0  0  0
226295  1  0  0  0  0
219227  1  0  0  0  0
227228  1  0  0  0  0
227297  1  0  0  0  0
228229  1  0  0  0  0
228299  1  0  0  0  0
221229  1  0  0  0  0
229230  1  0  0  0  0
229300  1  0  0  0  0
223230  1  0  0  0  0
230301  1  0  0  0  0
230302  1  0  0  0  0
154231  1  0  0  0  0
231232  1  0  0  0  0
232233  1  0  0  0  0
232304  1  0  0  0  0
M  END
$$$$
