data/sugammadex.pdb
 OpenBabel09052323333D

232240  0  0  1  0  0  0  0  0999 V2000
   13.7100   -4.1750   17.0260 C   0  0  0  0  0  0  0  0  0  0  0  0
   14.6740   -3.1840   16.3600 C   0  0  0  0  0  0  0  0  0  0  0  0
   16.0050   -3.9270   15.3260 S   0  0  0  0  0  0  0  0  0  0  0  0
   14.1140   -4.5570   18.4400 C   0  0  0  0  0  0  0  0  0  0  0  0
   14.2380   -5.7760   18.6830 O   0  0  0  0  0  0  0  0  0  0  0  0
   14.2770   -3.6380   19.2690 O   0  5  0  0  0  0  0  0  0  0  0  0
   19.7660  -11.1020   14.4070 C   0  0  2  0  0  0  0  0  0  0  0  0
   20.7110  -12.2840   14.6930 C   0  0  1  0  0  0  0  0  0  0  0  0
   22.1720  -11.8530   14.5080 C   0  0  2  0  0  0  0  0  0  0  0  0
   22.3830  -11.2110   13.1330 C   0  0  1  0  0  0  0  0  0  0  0  0
   21.3750  -10.0720   12.9410 C   0  0  1  0  0  0  0  0  0  0  0  0
   21.4680   -9.5100   11.5040 C   0  0  0  0  0  0  0  0  0  0  0  0
   20.5210  -12.7490   16.0200 O   0  0  0  0  0  0  0  0  0  0  0  0
   23.0300  -12.9780   14.6480 O   0  0  0  0  0  0  0  0  0  0  0  0
   23.7210  -10.6930   13.0550 O   0  0  0  0  0  0  0  0  0  0  0  0
   20.0320  -10.5780   13.1050 O   0  0  0  0  0  0  0  0  0  0  0  0
   24.4480  -11.0510   11.9130 C   0  0  2  0  0  0  0  0  0  0  0  0
   25.8520  -11.5040   12.3250 C   0  0  1  0  0  0  0  0  0  0  0  0
   26.6720  -10.3120   12.8360 C   0  0  2  0  0  0  0  0  0  0  0  0
   26.6700   -9.1740   11.8060 C   0  0  1  0  0  0  0  0  0  0  0  0
   25.2240   -8.8170   11.4660 C   0  0  1  0  0  0  0  0  0  0  0  0
   25.1700   -7.7200   10.3880 C   0  0  0  0  0  0  0  0  0  0  0  0
   25.7510  -12.4870   13.3490 O   0  0  0  0  0  0  0  0  0  0  0  0
   28.0020  -10.7230   13.1030 O   0  0  0  0  0  0  0  0  0  0  0  0
   27.3380   -8.0220   12.3570 O   0  0  0  0  0  0  0  0  0  0  0  0
   24.5340   -9.9810   10.9730 O   0  0  0  0  0  0  0  0  0  0  0  0
   28.6420   -7.8090   11.8970 C   0  0  2  0  0  0  0  0  0  0  0  0
   29.6140   -7.7860   13.0770 C   0  0  1  0  0  0  0  0  0  0  0  0
   29.4160   -6.5150   13.9080 C   0  0  2  0  0  0  0  0  0  0  0  0
   29.4740   -5.2540   13.0310 C   0  0  1  0  0  0  0  0  0  0  0  0
   28.4970   -5.3940   11.8620 C   0  0  1  0  0  0  0  0  0  0  0  0
   28.5630   -4.2350   10.8610 C   0  0  0  0  0  0  0  0  0  0  0  0
   29.4000   -8.9280   13.8950 O   0  0  0  0  0  0  0  0  0  0  0  0
   30.4220   -6.4430   14.9030 O   0  0  0  0  0  0  0  0  0  0  0  0
   29.0980   -4.1120   13.8230 O   0  0  0  0  0  0  0  0  0  0  0  0
   28.7650   -6.6110   11.1340 O   0  0  0  0  0  0  0  0  0  0  0  0
   29.8450   -2.9360   13.6550 C   0  0  2  0  0  0  0  0  0  0  0  0
   30.3840   -2.4940   15.0180 C   0  0  1  0  0  0  0  0  0  0  0  0
   29.2150   -2.1750   15.9430 C   0  0  2  0  0  0  0  0  0  0  0  0
   28.2700   -1.1510   15.3100 C   0  0  1  0  0  0  0  0  0  0  0  0
   27.8740   -1.5700   13.8910 C   0  0  1  0  0  0  0  0  0  0  0  0
   27.1110   -0.4350   13.1780 C   0  0  0  0  0  0  0  0  0  0  0  0
   31.1650   -3.5310   15.5870 O   0  0  0  0  0  0  0  0  0  0  0  0
   29.7040   -1.6660   17.1720 O   0  0  0  0  0  0  0  0  0  0  0  0
   27.0710   -1.0700   16.0830 O   0  0  0  0  0  0  0  0  0  0  0  0
   29.0520   -1.8840   13.1100 O   0  0  0  0  0  0  0  0  0  0  0  0
   26.7810    0.2250   16.5600 C   0  0  2  0  0  0  0  0  0  0  0  0
   26.6990    0.2530   18.0980 C   0  0  1  0  0  0  0  0  0  0  0  0
   25.4410   -0.4670   18.6020 C   0  0  2  0  0  0  0  0  0  0  0  0
   24.2040    0.0590   17.8810 C   0  0  1  0  0  0  0  0  0  0  0  0
   24.4100   -0.0810   16.3800 C   0  0  2  0  0  0  0  0  0  0  0  0
   27.8470   -0.3660   18.6500 O   0  0  0  0  0  0  0  0  0  0  0  0
   25.2990   -0.2400   19.9910 O   0  0  0  0  0  0  0  0  0  0  0  0
   23.0400   -0.6670   18.2980 O   0  0  0  0  0  0  0  0  0  0  0  0
   25.5670    0.6860   15.9940 O   0  0  0  0  0  0  0  0  0  0  0  0
   21.9280    0.1450   18.4970 C   0  0  2  0  0  0  0  0  0  0  0  0
   21.3840   -0.0530   19.9010 C   0  0  1  0  0  0  0  0  0  0  0  0
   20.6270   -1.3750   20.0150 C   0  0  2  0  0  0  0  0  0  0  0  0
   19.5940   -1.5520   18.8970 C   0  0  1  0  0  0  0  0  0  0  0  0
   20.2700   -1.3330   17.5470 C   0  0  1  0  0  0  0  0  0  0  0  0
   19.2140   -1.4150   16.4270 C   0  0  0  0  0  0  0  0  0  0  0  0
   22.4790   -0.0690   20.7980 O   0  0  0  0  0  0  0  0  0  0  0  0
   19.9760   -1.4350   21.2730 O   0  0  0  0  0  0  0  0  0  0  0  0
   19.0930   -2.9000   18.9500 O   0  0  0  0  0  0  0  0  0  0  0  0
   20.9120   -0.0480   17.5140 O   0  0  0  0  0  0  0  0  0  0  0  0
   17.7410   -3.0580   19.2420 C   0  0  2  0  0  0  0  0  0  0  0  0
   17.5820   -4.0410   20.3950 C   0  0  1  0  0  0  0  0  0  0  0  0
   18.1340   -5.4170   19.9770 C   0  0  2  0  0  0  0  0  0  0  0  0
   17.5250   -5.8780   18.6520 C   0  0  1  0  0  0  0  0  0  0  0  0
   17.5560   -4.7800   17.5890 C   0  0  1  0  0  0  0  0  0  0  0  0
   16.6840   -5.2520   16.4040 C   0  0  0  0  0  0  0  0  0  0  0  0
   18.2830   -3.5560   21.5270 O   0  0  0  0  0  0  0  0  0  0  0  0
   17.8340   -6.3850   20.9770 O   0  0  0  0  0  0  0  0  0  0  0  0
   18.2600   -7.0100   18.1690 O   0  0  0  0  0  0  0  0  0  0  0  0
   17.0300   -3.5500   18.1260 O   0  0  0  0  0  0  0  0  0  0  0  0
   17.5700   -8.2180   18.2580 C   0  0  2  0  0  0  0  0  0  0  0  0
   18.5090   -9.3000   18.7730 C   0  0  1  0  0  0  0  0  0  0  0  0
   19.5410   -9.6560   17.7180 C   0  0  2  0  0  0  0  0  0  0  0  0
   18.8910  -10.0060   16.3760 C   0  0  1  0  0  0  0  0  0  0  0  0
   17.9350   -8.8800   15.9550 C   0  0  1  0  0  0  0  0  0  0  0  0
   17.1250   -9.1460   14.6840 C   0  0  0  0  0  0  0  0  0  0  0  0
   19.1880   -8.8010   19.9130 O   0  0  0  0  0  0  0  0  0  0  0  0
   20.3380  -10.7400   18.1760 O   0  0  0  0  0  0  0  0  0  0  0  0
   19.9290  -10.1230   15.3920 O   0  0  0  0  0  0  0  0  0  0  0  0
   16.9890   -8.5980   17.0150 O   0  0  0  0  0  0  0  0  0  0  0  0
   17.4180   -1.2390   13.5840 C   0  0  0  0  0  0  0  0  0  0  0  0
   18.8600   -0.7700   13.7310 C   0  0  0  0  0  0  0  0  0  0  0  0
   19.9080   -1.8330   14.7890 S   0  0  0  0  0  0  0  0  0  0  0  0
   16.6050   -0.5280   12.4970 C   0  0  0  0  0  0  0  0  0  0  0  0
   16.8190    0.7990   12.2720 O   0  5  0  0  0  0  0  0  0  0  0  0
   15.7470   -1.1210   11.8530 O   0  0  0  0  0  0  0  0  0  0  0  0
   28.1700    1.0020   12.7170 S   0  0  0  0  0  0  0  0  0  0  0  0
   27.4500    2.3430   13.7300 C   0  0  0  0  0  0  0  0  0  0  0  0
   28.4800    2.9120   14.7040 C   0  0  0  0  0  0  0  0  0  0  0  0
   27.8110    3.7330   15.7820 C   0  0  0  0  0  0  0  0  0  0  0  0
   27.5510    4.9190   15.5030 O   0  0  0  0  0  0  0  0  0  0  0  0
   27.5720    3.1510   16.8620 O   0  5  0  0  0  0  0  0  0  0  0  0
   27.0330   -3.2420   10.7930 S   0  0  0  0  0  0  0  0  0  0  0  0
   27.6820   -1.8160    9.8440 C   0  0  0  0  0  0  0  0  0  0  0  0
   28.1400   -2.1930    8.4310 C   0  0  0  0  0  0  0  0  0  0  0  0
   29.6470   -2.1210    8.2750 C   0  0  0  0  0  0  0  0  0  0  0  0
   30.0940   -1.1470    7.6380 O   0  0  0  0  0  0  0  0  0  0  0  0
   30.3260   -3.0380    8.7830 O   0  5  0  0  0  0  0  0  0  0  0  0
   23.5900   -6.7910   10.4020 S   0  0  0  0  0  0  0  0  0  0  0  0
   23.5110   -6.2880    8.6450 C   0  0  0  0  0  0  0  0  0  0  0  0
   22.1270   -5.7570    8.2790 C   0  0  0  0  0  0  0  0  0  0  0  0
   22.0660   -5.2980    6.8350 C   0  0  0  0  0  0  0  0  0  0  0  0
   22.3860   -6.1260    5.9590 O   0  0  0  0  0  0  0  0  0  0  0  0
   21.6930   -4.1260    6.6280 O   0  5  0  0  0  0  0  0  0  0  0  0
   21.3190  -10.7950   10.1820 S   0  0  0  0  0  0  0  0  0  0  0  0
   22.3400  -10.0830    8.8310 C   0  0  0  0  0  0  0  0  0  0  0  0
   23.0930  -11.1500    8.0200 C   0  0  0  0  0  0  0  0  0  0  0  0
   24.4870  -11.4700    8.5440 C   0  0  0  0  0  0  0  0  0  0  0  0
   25.4110  -10.6860    8.2360 O   0  0  0  0  0  0  0  0  0  0  0  0
   24.6400  -12.5220    9.2040 O   0  5  0  0  0  0  0  0  0  0  0  0
   17.8020   -8.3160   13.2010 S   0  0  0  0  0  0  0  0  0  0  0  0
   16.6750   -8.9790   11.9210 C   0  0  0  0  0  0  0  0  0  0  0  0
   16.8580  -10.4740   11.6270 C   0  0  0  0  0  0  0  0  0  0  0  0
   16.0140  -11.3570   12.5240 C   0  0  0  0  0  0  0  0  0  0  0  0
   16.6100  -12.1530   13.2820 O   0  0  0  0  0  0  0  0  0  0  0  0
   14.7780  -11.2020   12.4510 O   0  5  0  0  0  0  0  0  0  0  0  0
   23.6400    0.7800   13.7910 S   0  0  0  0  0  0  0  0  0  0  0  0
   22.4620    2.1390   13.4650 C   0  0  0  0  0  0  0  0  0  0  0  0
   21.0390    1.6020   13.5130 C   0  0  0  0  0  0  0  0  0  0  0  0
   19.9520    2.6140   13.2370 C   0  0  0  0  0  0  0  0  0  0  0  0
   18.8250    2.1250   12.9890 O   0  0  0  0  0  0  0  0  0  0  0  0
   20.2250    3.8240   13.3230 O   0  5  0  0  0  0  0  0  0  0  0  0
   23.2270    0.4350   15.5480 C   0  0  0  0  0  0  0  0  0  0  0  0
   13.6170   -5.0740   16.4200 H   0  0  0  0  0  0  0  0  0  0  0  0
   12.7330   -3.7080   17.1080 H   0  0  0  0  0  0  0  0  0  0  0  0
   15.1070   -2.5290   17.1170 H   0  0  0  0  0  0  0  0  0  0  0  0
   14.0900   -2.5510   15.6920 H   0  0  0  0  0  0  0  0  0  0  0  0
   18.7440  -11.4630   14.4080 H   0  0  0  0  0  0  0  0  0  0  0  0
   15.8470   -5.8420   16.7720 H   0  0  0  0  0  0  0  0  0  0  0  0
   20.4810  -13.0770   13.9810 H   0  0  0  0  0  0  0  0  0  0  0  0
   17.2850   -5.9140   15.7820 H   0  0  0  0  0  0  0  0  0  0  0  0
   22.4190  -11.1150   15.2720 H   0  0  0  0  0  0  0  0  0  0  0  0
   22.2270  -11.9810   12.3760 H   0  0  0  0  0  0  0  0  0  0  0  0
   21.5410   -9.2710   13.6630 H   0  0  0  0  0  0  0  0  0  0  0  0
   22.4100   -8.9880   11.3980 H   0  0  0  0  0  0  0  0  0  0  0  0
   20.6680   -8.7830   11.3660 H   0  0  0  0  0  0  0  0  0  0  0  0
   20.6210  -12.0000   16.6280 H   0  0  0  0  0  0  0  0  0  0  0  0
   23.8910  -12.7450   14.2610 H   0  0  0  0  0  0  0  0  0  0  0  0
   23.9640  -11.8840   11.4160 H   0  0  0  0  0  0  0  0  0  0  0  0
   26.3280  -11.9200   11.4340 H   0  0  0  0  0  0  0  0  0  0  0  0
   26.2090   -9.9490   13.7550 H   0  0  0  0  0  0  0  0  0  0  0  0
   27.1590   -9.5040   10.8850 H   0  0  0  0  0  0  0  0  0  0  0  0
   24.7100   -8.4610   12.3600 H   0  0  0  0  0  0  0  0  0  0  0  0
   25.3100   -8.1930    9.4130 H   0  0  0  0  0  0  0  0  0  0  0  0
   25.9720   -6.9990   10.5410 H   0  0  0  0  0  0  0  0  0  0  0  0
   26.6590  -12.7230   13.5700 H   0  0  0  0  0  0  0  0  0  0  0  0
   28.5850   -9.9710   13.3280 H   0  0  0  0  0  0  0  0  0  0  0  0
   28.9300   -8.6280   11.2470 H   0  0  0  0  0  0  0  0  0  0  0  0
   30.6260   -7.7930   12.6700 H   0  0  0  0  0  0  0  0  0  0  0  0
   28.4330   -6.5510   14.3810 H   0  0  0  0  0  0  0  0  0  0  0  0
   30.4890   -5.1280   12.6490 H   0  0  0  0  0  0  0  0  0  0  0  0
   27.4760   -5.4610   12.2430 H   0  0  0  0  0  0  0  0  0  0  0  0
   28.7300   -4.6470    9.8650 H   0  0  0  0  0  0  0  0  0  0  0  0
   29.4080   -3.5840   11.0820 H   0  0  0  0  0  0  0  0  0  0  0  0
   30.1820   -9.0410   14.4560 H   0  0  0  0  0  0  0  0  0  0  0  0
   30.5520   -7.3280   15.2660 H   0  0  0  0  0  0  0  0  0  0  0  0
   30.6740   -3.1090   12.9790 H   0  0  0  0  0  0  0  0  0  0  0  0
   30.9870   -1.5960   14.8740 H   0  0  0  0  0  0  0  0  0  0  0  0
   28.6520   -3.0910   16.1290 H   0  0  0  0  0  0  0  0  0  0  0  0
   28.7850   -0.1910   15.2620 H   0  0  0  0  0  0  0  0  0  0  0  0
   27.2390   -2.4570   13.9270 H   0  0  0  0  0  0  0  0  0  0  0  0
   26.2740   -0.1110   13.7890 H   0  0  0  0  0  0  0  0  0  0  0  0
   26.6920   -0.8370   12.2580 H   0  0  0  0  0  0  0  0  0  0  0  0
   30.7530   -4.3860   15.3720 H   0  0  0  0  0  0  0  0  0  0  0  0
   30.4550   -2.2230   17.4170 H   0  0  0  0  0  0  0  0  0  0  0  0
   27.5570    0.9130   16.2620 H   0  0  0  0  0  0  0  0  0  0  0  0
   26.6570    1.3020   18.3980 H   0  0  0  0  0  0  0  0  0  0  0  0
   25.5430   -1.5360   18.4070 H   0  0  0  0  0  0  0  0  0  0  0  0
   24.1130    1.1190   18.1260 H   0  0  0  0  0  0  0  0  0  0  0  0
   24.5890   -1.1240   16.1140 H   0  0  0  0  0  0  0  0  0  0  0  0
   28.3970   -0.7590   17.9450 H   0  0  0  0  0  0  0  0  0  0  0  0
   26.1920   -0.3100   20.3560 H   0  0  0  0  0  0  0  0  0  0  0  0
   22.2170    1.1860   18.4270 H   0  0  0  0  0  0  0  0  0  0  0  0
   20.7050    0.7660   20.1370 H   0  0  0  0  0  0  0  0  0  0  0  0
   21.3500   -2.1900   19.9470 H   0  0  0  0  0  0  0  0  0  0  0  0
   18.7840   -0.8320   19.0240 H   0  0  0  0  0  0  0  0  0  0  0  0
   21.0280   -2.1020   17.3850 H   0  0  0  0  0  0  0  0  0  0  0  0
   18.6920   -0.4590   16.3740 H   0  0  0  0  0  0  0  0  0  0  0  0
   18.4810   -2.1860   16.6530 H   0  0  0  0  0  0  0  0  0  0  0  0
   23.2820   -0.3660   20.3350 H   0  0  0  0  0  0  0  0  0  0  0  0
   19.4500   -2.2570   21.3280 H   0  0  0  0  0  0  0  0  0  0  0  0
   17.2970   -2.1140   19.5320 H   0  0  0  0  0  0  0  0  0  0  0  0
   16.5140   -4.1310   20.6090 H   0  0  0  0  0  0  0  0  0  0  0  0
   19.2140   -5.3310   19.8540 H   0  0  0  0  0  0  0  0  0  0  0  0
   16.4900   -6.1520   18.8400 H   0  0  0  0  0  0  0  0  0  0  0  0
   18.5730   -4.5960   17.2420 H   0  0  0  0  0  0  0  0  0  0  0  0
   18.1470   -4.2210   22.2140 H   0  0  0  0  0  0  0  0  0  0  0  0
   18.1450   -7.2540   20.6950 H   0  0  0  0  0  0  0  0  0  0  0  0
   16.7590   -8.1190   18.9720 H   0  0  0  0  0  0  0  0  0  0  0  0
   17.9180  -10.1830   19.0200 H   0  0  0  0  0  0  0  0  0  0  0  0
   20.1830   -8.7880   17.5540 H   0  0  0  0  0  0  0  0  0  0  0  0
   18.3500  -10.9510   16.4620 H   0  0  0  0  0  0  0  0  0  0  0  0
   18.5120   -7.9670   15.7970 H   0  0  0  0  0  0  0  0  0  0  0  0
   16.1100   -8.7740   14.8270 H   0  0  0  0  0  0  0  0  0  0  0  0
   17.0600  -10.2160   14.5350 H   0  0  0  0  0  0  0  0  0  0  0  0
   19.6410   -7.9930   19.6360 H   0  0  0  0  0  0  0  0  0  0  0  0
   20.5260  -10.5880   19.1110 H   0  0  0  0  0  0  0  0  0  0  0  0
   16.9030   -1.1090   14.5330 H   0  0  0  0  0  0  0  0  0  0  0  0
   17.4290   -2.3000   13.3390 H   0  0  0  0  0  0  0  0  0  0  0  0
   18.8380    0.2050   14.2050 H   0  0  0  0  0  0  0  0  0  0  0  0
   19.3170   -0.7000   12.7430 H   0  0  0  0  0  0  0  0  0  0  0  0
   26.5850    1.9760   14.2780 H   0  0  0  0  0  0  0  0  0  0  0  0
   27.1040    3.1440   13.0750 H   0  0  0  0  0  0  0  0  0  0  0  0
   29.1780    3.5480   14.1650 H   0  0  0  0  0  0  0  0  0  0  0  0
   29.0340    2.1090   15.1810 H   0  0  0  0  0  0  0  0  0  0  0  0
   28.5110   -1.3650   10.3940 H   0  0  0  0  0  0  0  0  0  0  0  0
   26.8860   -1.0750    9.7690 H   0  0  0  0  0  0  0  0  0  0  0  0
   27.7030   -1.4960    7.7190 H   0  0  0  0  0  0  0  0  0  0  0  0
   27.8110   -3.1970    8.1750 H   0  0  0  0  0  0  0  0  0  0  0  0
   23.7370   -7.1480    8.0110 H   0  0  0  0  0  0  0  0  0  0  0  0
   24.2560   -5.5120    8.4620 H   0  0  0  0  0  0  0  0  0  0  0  0
   21.8780   -4.9150    8.9210 H   0  0  0  0  0  0  0  0  0  0  0  0
   21.3890   -6.5440    8.4120 H   0  0  0  0  0  0  0  0  0  0  0  0
   23.0490   -9.3530    9.2160 H   0  0  0  0  0  0  0  0  0  0  0  0
   21.6630   -9.5520    8.1620 H   0  0  0  0  0  0  0  0  0  0  0  0
   23.2230  -10.7830    7.0050 H   0  0  0  0  0  0  0  0  0  0  0  0
   22.5120  -12.0680    7.9890 H   0  0  0  0  0  0  0  0  0  0  0  0
   16.8800   -8.4260   11.0040 H   0  0  0  0  0  0  0  0  0  0  0  0
   15.6400   -8.7860   12.2100 H   0  0  0  0  0  0  0  0  0  0  0  0
   17.9040  -10.7540   11.7180 H   0  0  0  0  0  0  0  0  0  0  0  0
   16.5350  -10.6740   10.6090 H   0  0  0  0  0  0  0  0  0  0  0  0
   22.6590    2.5570   12.4770 H   0  0  0  0  0  0  0  0  0  0  0  0
   22.5880    2.9270   14.2100 H   0  0  0  0  0  0  0  0  0  0  0  0
   20.8450    1.1930   14.4990 H   0  0  0  0  0  0  0  0  0  0  0  0
   20.9580    0.8140   12.7690 H   0  0  0  0  0  0  0  0  0  0  0  0
   22.4230   -0.3010   15.5720 H   0  0  0  0  0  0  0  0  0  0  0  0
   22.8730    1.3640   15.9920 H   0  0  0  0  0  0  0  0  0  0  0  0
  1  2  1  0  0  0  0
  1  4  1  0  0  0  0
  1129  1  0  0  0  0
  1130  1  0  0  0  0
  2  3  1  0  0  0  0
  2131  1  0  0  0  0
  2132  1  0  0  0  0
  3 71  1  0  0  0  0
  4  5  2  0  0  0  0
  4  6  1  0  0  0  0
  7  8  1  0  0  0  0
  7 16  1  0  0  0  0
  7 84  1  0  0  0  0
  7133  1  1  0  0  0
  8  9  1  0  0  0  0
  8 13  1  0  0  0  0
  8135  1  6  0  0  0
  9 10  1  0  0  0  0
  9 14  1  0  0  0  0
  9137  1  1  0  0  0
 10 11  1  0  0  0  0
 10 15  1  0  0  0  0
 10138  1  6  0  0  0
 11 12  1  0  0  0  0
 11 16  1  0  0  0  0
 11139  1  1  0  0  0
 12110  1  0  0  0  0
 12140  1  0  0  0  0
 12141  1  0  0  0  0
 13142  1  0  0  0  0
 14143  1  0  0  0  0
 15 17  1  0  0  0  0
 17 18  1  0  0  0  0
 17 26  1  0  0  0  0
 17144  1  6  0  0  0
 18 19  1  0  0  0  0
 18 23  1  0  0  0  0
 18145  1  6  0  0  0
 19 20  1  0  0  0  0
 19 24  1  0  0  0  0
 19146  1  1  0  0  0
 20 21  1  0  0  0  0
 20 25  1  0  0  0  0
 20147  1  6  0  0  0
 21 22  1  0  0  0  0
 21 26  1  0  0  0  0
 21148  1  1  0  0  0
 22104  1  0  0  0  0
 22149  1  0  0  0  0
 22150  1  0  0  0  0
 23151  1  0  0  0  0
 24152  1  0  0  0  0
 25 27  1  0  0  0  0
 27 28  1  0  0  0  0
 27 36  1  0  0  0  0
 27153  1  6  0  0  0
 28 29  1  0  0  0  0
 28 33  1  0  0  0  0
 28154  1  6  0  0  0
 29 30  1  0  0  0  0
 29 34  1  0  0  0  0
 29155  1  1  0  0  0
 30 31  1  0  0  0  0
 30 35  1  0  0  0  0
 30156  1  6  0  0  0
 31 32  1  0  0  0  0
 31 36  1  0  0  0  0
 31157  1  1  0  0  0
 32 98  1  0  0  0  0
 32158  1  0  0  0  0
 32159  1  0  0  0  0
 33160  1  0  0  0  0
 34161  1  0  0  0  0
 35 37  1  0  0  0  0
 37 38  1  0  0  0  0
 37 46  1  0  0  0  0
 37162  1  6  0  0  0
 38 39  1  0  0  0  0
 38 43  1  0  0  0  0
 38163  1  6  0  0  0
 39 40  1  0  0  0  0
 39 44  1  0  0  0  0
 39164  1  1  0  0  0
 40 41  1  0  0  0  0
 40 45  1  0  0  0  0
 40165  1  6  0  0  0
 41 42  1  0  0  0  0
 41 46  1  0  0  0  0
 41166  1  1  0  0  0
 42 92  1  0  0  0  0
 42167  1  0  0  0  0
 42168  1  0  0  0  0
 43169  1  0  0  0  0
 44170  1  0  0  0  0
 45 47  1  0  0  0  0
 47 48  1  0  0  0  0
 47 55  1  0  0  0  0
 47171  1  6  0  0  0
 48 49  1  0  0  0  0
 48 52  1  0  0  0  0
 48172  1  1  0  0  0
 49 50  1  0  0  0  0
 49 53  1  0  0  0  0
 49173  1  6  0  0  0
 50 51  1  0  0  0  0
 50 54  1  0  0  0  0
 50174  1  1  0  0  0
 51 55  1  0  0  0  0
 51128  1  0  0  0  0
 51175  1  6  0  0  0
 52176  1  0  0  0  0
 53177  1  0  0  0  0
 54 56  1  0  0  0  0
 56 57  1  0  0  0  0
 56 65  1  0  0  0  0
 56178  1  6  0  0  0
 57 58  1  0  0  0  0
 57 62  1  0  0  0  0
 57179  1  1  0  0  0
 58 59  1  0  0  0  0
 58 63  1  0  0  0  0
 58180  1  6  0  0  0
 59 60  1  0  0  0  0
 59 64  1  0  0  0  0
 59181  1  1  0  0  0
 60 61  1  0  0  0  0
 60 65  1  0  0  0  0
 60182  1  6  0  0  0
 61 88  1  0  0  0  0
 61183  1  0  0  0  0
 61184  1  0  0  0  0
 62185  1  0  0  0  0
 63186  1  0  0  0  0
 64 66  1  0  0  0  0
 66 67  1  0  0  0  0
 66 75  1  0  0  0  0
 66187  1  1  0  0  0
 67 68  1  0  0  0  0
 67 72  1  0  0  0  0
 67188  1  1  0  0  0
 68 69  1  0  0  0  0
 68 73  1  0  0  0  0
 68189  1  6  0  0  0
 69 70  1  0  0  0  0
 69 74  1  0  0  0  0
 69190  1  1  0  0  0
 70 71  1  0  0  0  0
 70 75  1  0  0  0  0
 70191  1  6  0  0  0
 71134  1  0  0  0  0
 71136  1  0  0  0  0
 72192  1  0  0  0  0
 73193  1  0  0  0  0
 74 76  1  0  0  0  0
 76 77  1  0  0  0  0
 76 85  1  0  0  0  0
 76194  1  1  0  0  0
 77 78  1  0  0  0  0
 77 82  1  0  0  0  0
 77195  1  1  0  0  0
 78 79  1  0  0  0  0
 78 83  1  0  0  0  0
 78196  1  6  0  0  0
 79 80  1  0  0  0  0
 79 84  1  0  0  0  0
 79197  1  1  0  0  0
 80 81  1  0  0  0  0
 80 85  1  0  0  0  0
 80198  1  6  0  0  0
 81116  1  0  0  0  0
 81199  1  0  0  0  0
 81200  1  0  0  0  0
 82201  1  0  0  0  0
 83202  1  0  0  0  0
 86 87  1  0  0  0  0
 86 89  1  0  0  0  0
 86203  1  0  0  0  0
 86204  1  0  0  0  0
 87 88  1  0  0  0  0
 87205  1  0  0  0  0
 87206  1  0  0  0  0
 89 90  1  0  0  0  0
 89 91  2  0  0  0  0
 92 93  1  0  0  0  0
 93 94  1  0  0  0  0
 93207  1  0  0  0  0
 93208  1  0  0  0  0
 94 95  1  0  0  0  0
 94209  1  0  0  0  0
 94210  1  0  0  0  0
 95 96  2  0  0  0  0
 95 97  1  0  0  0  0
 98 99  1  0  0  0  0
 99100  1  0  0  0  0
 99211  1  0  0  0  0
 99212  1  0  0  0  0
100101  1  0  0  0  0
100213  1  0  0  0  0
100214  1  0  0  0  0
101102  2  0  0  0  0
101103  1  0  0  0  0
104105  1  0  0  0  0
105106  1  0  0  0  0
105215  1  0  0  0  0
105216  1  0  0  0  0
106107  1  0  0  0  0
106217  1  0  0  0  0
106218  1  0  0  0  0
107108  2  0  0  0  0
107109  1  0  0  0  0
110111  1  0  0  0  0
111112  1  0  0  0  0
111219  1  0  0  0  0
111220  1  0  0  0  0
112113  1  0  0  0  0
112221  1  0  0  0  0
112222  1  0  0  0  0
113114  2  0  0  0  0
113115  1  0  0  0  0
116117  1  0  0  0  0
117118  1  0  0  0  0
117223  1  0  0  0  0
117224  1  0  0  0  0
118119  1  0  0  0  0
118225  1  0  0  0  0
118226  1  0  0  0  0
119120  2  0  0  0  0
119121  1  0  0  0  0
122123  1  0  0  0  0
122128  1  0  0  0  0
123124  1  0  0  0  0
123227  1  0  0  0  0
123228  1  0  0  0  0
124125  1  0  0  0  0
124229  1  0  0  0  0
124230  1  0  0  0  0
125126  2  0  0  0  0
125127  1  0  0  0  0
128231  1  0  0  0  0
128232  1  0  0  0  0
M  CHG  8   6  -1  90  -1  97  -1 103  -1 109  -1 115  -1 121  -1 127  -1
M  END
$$$$
